MODEL 1
REMARK VINA RESULT:      -5.8      0.000      0.000
REMARK  Name = ./IMPHY000003_3D.pdb
REMARK  4 active torsions:
REMARK  status: ('A' for Active; 'I' for Inactive)
REMARK    1  A    between atoms: O_2  and  C_13
REMARK    2  A    between atoms: C_3  and  C_12
REMARK    3  A    between atoms: C_5  and  C_15
REMARK    4  A    between atoms: C_5  and  C_16
REMARK                            x       y       z     vdW  Elec       q    Type
REMARK                         _______ _______ _______ _____ _____    ______ ____
ROOT
ATOM      1  O   UNL     1     -16.243   3.485  -1.014  0.00  0.00    +0.000 OA
ATOM      2  C   UNL     1     -15.688   3.590   2.751  0.00  0.00    +0.000 C 
ATOM      3  C   UNL     1     -16.534   4.612   3.607  0.00  0.00    +0.000 C 
ATOM      4  C   UNL     1     -16.199   4.708   5.139  0.00  0.00    +0.000 C 
ATOM      5  C   UNL     1     -15.930   3.997   1.258  0.00  0.00    +0.000 C 
ATOM      6  C   UNL     1     -14.185   3.747   3.085  0.00  0.00    +0.000 C 
ATOM      7  C   UNL     1     -14.664   4.787   5.328  0.00  0.00    +0.000 C 
ATOM      8  C   UNL     1     -18.049   4.495   3.280  0.00  0.00    +0.000 C 
ATOM      9  C   UNL     1     -13.891   3.705   4.581  0.00  0.00    +0.000 C 
ATOM     10  C   UNL     1     -17.373   4.163   0.907  0.00  0.00    +0.000 C 
ATOM     11  C   UNL     1     -16.098   2.116   2.981  0.00  0.00    +0.000 C 
ATOM     12  C   UNL     1     -15.497   3.050   0.141  0.00  0.00    +0.000 C 
ATOM     13  C   UNL     1     -18.340   4.368   1.808  0.00  0.00    +0.000 C 
ATOM     14  C   UNL     1     -16.771   3.567   6.003  0.00  0.00    +0.000 C 
ATOM     15  C   UNL     1     -16.797   6.020   5.712  0.00  0.00    +0.000 C 
ATOM     16  C   UNL     1     -17.534   3.931  -0.553  0.00  0.00    +0.000 C 
ENDROOT
BRANCH  12  17
ATOM     17  O   UNL     1     -14.100   3.163  -0.081  0.00  0.00    +0.000 OA
ATOM     18  H   UNL     1     -13.977   3.391  -1.017  0.00  0.00    +0.000 HD
ENDBRANCH  12  17
TORSDOF 1
ENDMDL
MODEL 2
REMARK VINA RESULT:      -5.6      2.931      4.379
REMARK  Name = ./IMPHY000003_3D.pdb
REMARK  4 active torsions:
REMARK  status: ('A' for Active; 'I' for Inactive)
REMARK    1  A    between atoms: O_2  and  C_13
REMARK    2  A    between atoms: C_3  and  C_12
REMARK    3  A    between atoms: C_5  and  C_15
REMARK    4  A    between atoms: C_5  and  C_16
REMARK                            x       y       z     vdW  Elec       q    Type
REMARK                         _______ _______ _______ _____ _____    ______ ____
ROOT
ATOM      1  O   UNL     1     -16.486   1.613  -2.714  0.00  0.00    +0.000 OA
ATOM      2  C   UNL     1     -18.058   3.462   0.221  0.00  0.00    +0.000 C 
ATOM      3  C   UNL     1     -19.377   2.873   0.860  0.00  0.00    +0.000 C 
ATOM      4  C   UNL     1     -20.060   3.721   1.993  0.00  0.00    +0.000 C 
ATOM      5  C   UNL     1     -17.846   2.661  -1.109  0.00  0.00    +0.000 C 
ATOM      6  C   UNL     1     -18.262   4.959  -0.113  0.00  0.00    +0.000 C 
ATOM      7  C   UNL     1     -20.133   5.205   1.555  0.00  0.00    +0.000 C 
ATOM      8  C   UNL     1     -19.212   1.363   1.189  0.00  0.00    +0.000 C 
ATOM      9  C   UNL     1     -18.807   5.770   1.058  0.00  0.00    +0.000 C 
ATOM     10  C   UNL     1     -17.929   1.179  -0.937  0.00  0.00    +0.000 C 
ATOM     11  C   UNL     1     -16.820   3.321   1.138  0.00  0.00    +0.000 C 
ATOM     12  C   UNL     1     -16.513   2.765  -1.845  0.00  0.00    +0.000 C 
ATOM     13  C   UNL     1     -18.523   0.581   0.102  0.00  0.00    +0.000 C 
ATOM     14  C   UNL     1     -19.388   3.620   3.376  0.00  0.00    +0.000 C 
ATOM     15  C   UNL     1     -21.518   3.231   2.189  0.00  0.00    +0.000 C 
ATOM     16  C   UNL     1     -17.141   0.533  -2.020  0.00  0.00    +0.000 C 
ENDROOT
BRANCH  12  17
ATOM     17  O   UNL     1     -16.460   3.969  -2.592  0.00  0.00    +0.000 OA
ATOM     18  H   UNL     1     -15.780   3.852  -3.276  0.00  0.00    +0.000 HD
ENDBRANCH  12  17
TORSDOF 1
ENDMDL
MODEL 3
REMARK VINA RESULT:      -5.6      1.749      2.983
REMARK  Name = ./IMPHY000003_3D.pdb
REMARK  4 active torsions:
REMARK  status: ('A' for Active; 'I' for Inactive)
REMARK    1  A    between atoms: O_2  and  C_13
REMARK    2  A    between atoms: C_3  and  C_12
REMARK    3  A    between atoms: C_5  and  C_15
REMARK    4  A    between atoms: C_5  and  C_16
REMARK                            x       y       z     vdW  Elec       q    Type
REMARK                         _______ _______ _______ _____ _____    ______ ____
ROOT
ATOM      1  O   UNL     1     -20.009   5.163   0.627  0.00  0.00    +0.000 OA
ATOM      2  C   UNL     1     -16.671   3.681   1.704  0.00  0.00    +0.000 C 
ATOM      3  C   UNL     1     -16.116   4.043   3.138  0.00  0.00    +0.000 C 
ATOM      4  C   UNL     1     -14.685   3.506   3.504  0.00  0.00    +0.000 C 
ATOM      5  C   UNL     1     -17.871   4.658   1.463  0.00  0.00    +0.000 C 
ATOM      6  C   UNL     1     -15.579   3.942   0.639  0.00  0.00    +0.000 C 
ATOM      7  C   UNL     1     -13.716   3.769   2.325  0.00  0.00    +0.000 C 
ATOM      8  C   UNL     1     -17.196   3.811   4.230  0.00  0.00    +0.000 C 
ATOM      9  C   UNL     1     -14.240   3.293   0.975  0.00  0.00    +0.000 C 
ATOM     10  C   UNL     1     -18.849   4.699   2.593  0.00  0.00    +0.000 C 
ATOM     11  C   UNL     1     -17.141   2.212   1.585  0.00  0.00    +0.000 C 
ATOM     12  C   UNL     1     -18.827   4.403   0.300  0.00  0.00    +0.000 C 
ATOM     13  C   UNL     1     -18.565   4.302   3.839  0.00  0.00    +0.000 C 
ATOM     14  C   UNL     1     -14.630   2.018   3.900  0.00  0.00    +0.000 C 
ATOM     15  C   UNL     1     -14.142   4.293   4.726  0.00  0.00    +0.000 C 
ATOM     16  C   UNL     1     -20.172   5.116   2.058  0.00  0.00    +0.000 C 
ENDROOT
BRANCH  12  17
ATOM     17  O   UNL     1     -18.249   4.855  -0.914  0.00  0.00    +0.000 OA
ATOM     18  H   UNL     1     -18.512   5.783  -1.029  0.00  0.00    +0.000 HD
ENDBRANCH  12  17
TORSDOF 1
ENDMDL
MODEL 4
REMARK VINA RESULT:      -5.2      2.827      5.298
REMARK  Name = ./IMPHY000003_3D.pdb
REMARK  4 active torsions:
REMARK  status: ('A' for Active; 'I' for Inactive)
REMARK    1  A    between atoms: O_2  and  C_13
REMARK    2  A    between atoms: C_3  and  C_12
REMARK    3  A    between atoms: C_5  and  C_15
REMARK    4  A    between atoms: C_5  and  C_16
REMARK                            x       y       z     vdW  Elec       q    Type
REMARK                         _______ _______ _______ _____ _____    ______ ____
ROOT
ATOM      1  O   UNL     1     -15.345   5.091   6.817  0.00  0.00    +0.000 OA
ATOM      2  C   UNL     1     -17.481   4.258   3.776  0.00  0.00    +0.000 C 
ATOM      3  C   UNL     1     -16.755   3.967   2.405  0.00  0.00    +0.000 C 
ATOM      4  C   UNL     1     -17.670   3.739   1.148  0.00  0.00    +0.000 C 
ATOM      5  C   UNL     1     -16.374   4.842   4.718  0.00  0.00    +0.000 C 
ATOM      6  C   UNL     1     -18.586   5.321   3.568  0.00  0.00    +0.000 C 
ATOM      7  C   UNL     1     -18.770   4.828   1.105  0.00  0.00    +0.000 C 
ATOM      8  C   UNL     1     -15.624   2.917   2.584  0.00  0.00    +0.000 C 
ATOM      9  C   UNL     1     -19.531   4.993   2.416  0.00  0.00    +0.000 C 
ATOM     10  C   UNL     1     -15.125   4.022   4.758  0.00  0.00    +0.000 C 
ATOM     11  C   UNL     1     -18.117   2.998   4.410  0.00  0.00    +0.000 C 
ATOM     12  C   UNL     1     -16.651   4.971   6.215  0.00  0.00    +0.000 C 
ATOM     13  C   UNL     1     -14.785   3.137   3.814  0.00  0.00    +0.000 C 
ATOM     14  C   UNL     1     -18.317   2.343   1.059  0.00  0.00    +0.000 C 
ATOM     15  C   UNL     1     -16.819   3.898  -0.139  0.00  0.00    +0.000 C 
ATOM     16  C   UNL     1     -14.439   4.270   6.054  0.00  0.00    +0.000 C 
ENDROOT
BRANCH  12  17
ATOM     17  O   UNL     1     -17.439   6.122   6.468  0.00  0.00    +0.000 OA
ATOM     18  H   UNL     1     -18.362   5.826   6.544  0.00  0.00    +0.000 HD
ENDBRANCH  12  17
TORSDOF 1
ENDMDL
MODEL 5
REMARK VINA RESULT:      -5.0     13.292     15.594
REMARK  Name = ./IMPHY000003_3D.pdb
REMARK  4 active torsions:
REMARK  status: ('A' for Active; 'I' for Inactive)
REMARK    1  A    between atoms: O_2  and  C_13
REMARK    2  A    between atoms: C_3  and  C_12
REMARK    3  A    between atoms: C_5  and  C_15
REMARK    4  A    between atoms: C_5  and  C_16
REMARK                            x       y       z     vdW  Elec       q    Type
REMARK                         _______ _______ _______ _____ _____    ______ ____
ROOT
ATOM      1  O   UNL     1     -27.882  14.840  10.217  0.00  0.00    +0.000 OA
ATOM      2  C   UNL     1     -27.557  11.232   9.044  0.00  0.00    +0.000 C 
ATOM      3  C   UNL     1     -26.654  10.247   9.886  0.00  0.00    +0.000 C 
ATOM      4  C   UNL     1     -26.452   8.798   9.311  0.00  0.00    +0.000 C 
ATOM      5  C   UNL     1     -27.247  12.662   9.604  0.00  0.00    +0.000 C 
ATOM      6  C   UNL     1     -27.150  11.169   7.553  0.00  0.00    +0.000 C 
ATOM      7  C   UNL     1     -26.122   8.883   7.801  0.00  0.00    +0.000 C 
ATOM      8  C   UNL     1     -27.024  10.301  11.394  0.00  0.00    +0.000 C 
ATOM      9  C   UNL     1     -27.092   9.747   7.002  0.00  0.00    +0.000 C 
ATOM     10  C   UNL     1     -27.326  12.754  11.093  0.00  0.00    +0.000 C 
ATOM     11  C   UNL     1     -29.069  10.924   9.161  0.00  0.00    +0.000 C 
ATOM     12  C   UNL     1     -28.151  13.831   9.221  0.00  0.00    +0.000 C 
ATOM     13  C   UNL     1     -27.247  11.698  11.910  0.00  0.00    +0.000 C 
ATOM     14  C   UNL     1     -27.639   7.839   9.531  0.00  0.00    +0.000 C 
ATOM     15  C   UNL     1     -25.234   8.138  10.008  0.00  0.00    +0.000 C 
ATOM     16  C   UNL     1     -27.632  14.162  11.463  0.00  0.00    +0.000 C 
ENDROOT
BRANCH  12  17
ATOM     17  O   UNL     1     -27.823  14.296   7.921  0.00  0.00    +0.000 OA
ATOM     18  H   UNL     1     -28.304  13.737   7.288  0.00  0.00    +0.000 HD
ENDBRANCH  12  17
TORSDOF 1
ENDMDL
MODEL 6
REMARK VINA RESULT:      -5.0     13.120     15.302
REMARK  Name = ./IMPHY000003_3D.pdb
REMARK  4 active torsions:
REMARK  status: ('A' for Active; 'I' for Inactive)
REMARK    1  A    between atoms: O_2  and  C_13
REMARK    2  A    between atoms: C_3  and  C_12
REMARK    3  A    between atoms: C_5  and  C_15
REMARK    4  A    between atoms: C_5  and  C_16
REMARK                            x       y       z     vdW  Elec       q    Type
REMARK                         _______ _______ _______ _____ _____    ______ ____
ROOT
ATOM      1  O   UNL     1     -25.675   7.439  10.082  0.00  0.00    +0.000 OA
ATOM      2  C   UNL     1     -27.408  10.816  10.392  0.00  0.00    +0.000 C 
ATOM      3  C   UNL     1     -27.308  11.826   9.182  0.00  0.00    +0.000 C 
ATOM      4  C   UNL     1     -27.938  13.250   9.389  0.00  0.00    +0.000 C 
ATOM      5  C   UNL     1     -26.372   9.684  10.077  0.00  0.00    +0.000 C 
ATOM      6  C   UNL     1     -27.001  11.529  11.704  0.00  0.00    +0.000 C 
ATOM      7  C   UNL     1     -27.506  13.811  10.766  0.00  0.00    +0.000 C 
ATOM      8  C   UNL     1     -27.691  11.134   7.844  0.00  0.00    +0.000 C 
ATOM      9  C   UNL     1     -27.734  12.848  11.926  0.00  0.00    +0.000 C 
ATOM     10  C   UNL     1     -26.496   9.123   8.697  0.00  0.00    +0.000 C 
ATOM     11  C   UNL     1     -28.823  10.216  10.571  0.00  0.00    +0.000 C 
ATOM     12  C   UNL     1     -26.401   8.391  10.888  0.00  0.00    +0.000 C 
ATOM     13  C   UNL     1     -27.104   9.756   7.688  0.00  0.00    +0.000 C 
ATOM     14  C   UNL     1     -29.472  13.308   9.262  0.00  0.00    +0.000 C 
ATOM     15  C   UNL     1     -27.383  14.215   8.309  0.00  0.00    +0.000 C 
ATOM     16  C   UNL     1     -25.959   7.737   8.701  0.00  0.00    +0.000 C 
ENDROOT
BRANCH  12  17
ATOM     17  O   UNL     1     -25.768   8.587  12.142  0.00  0.00    +0.000 OA
ATOM     18  H   UNL     1     -25.243   7.789  12.326  0.00  0.00    +0.000 HD
ENDBRANCH  12  17
TORSDOF 1
ENDMDL
MODEL 7
REMARK VINA RESULT:      -4.8     17.826     20.158
REMARK  Name = ./IMPHY000003_3D.pdb
REMARK  4 active torsions:
REMARK  status: ('A' for Active; 'I' for Inactive)
REMARK    1  A    between atoms: O_2  and  C_13
REMARK    2  A    between atoms: C_3  and  C_12
REMARK    3  A    between atoms: C_5  and  C_15
REMARK    4  A    between atoms: C_5  and  C_16
REMARK                            x       y       z     vdW  Elec       q    Type
REMARK                         _______ _______ _______ _____ _____    ______ ____
ROOT
ATOM      1  O   UNL     1     -32.209  17.283  12.889  0.00  0.00    +0.000 OA
ATOM      2  C   UNL     1     -30.051  15.585  10.251  0.00  0.00    +0.000 C 
ATOM      3  C   UNL     1     -29.314  14.242  10.634  0.00  0.00    +0.000 C 
ATOM      4  C   UNL     1     -28.344  13.630   9.560  0.00  0.00    +0.000 C 
ATOM      5  C   UNL     1     -30.592  16.163  11.602  0.00  0.00    +0.000 C 
ATOM      6  C   UNL     1     -29.039  16.582   9.638  0.00  0.00    +0.000 C 
ATOM      7  C   UNL     1     -27.442  14.748   8.982  0.00  0.00    +0.000 C 
ATOM      8  C   UNL     1     -30.301  13.225  11.272  0.00  0.00    +0.000 C 
ATOM      9  C   UNL     1     -28.206  15.980   8.510  0.00  0.00    +0.000 C 
ATOM     10  C   UNL     1     -31.349  15.169  12.422  0.00  0.00    +0.000 C 
ATOM     11  C   UNL     1     -31.214  15.379   9.250  0.00  0.00    +0.000 C 
ATOM     12  C   UNL     1     -31.603  17.307  11.580  0.00  0.00    +0.000 C 
ATOM     13  C   UNL     1     -31.243  13.844  12.270  0.00  0.00    +0.000 C 
ATOM     14  C   UNL     1     -29.040  12.877   8.409  0.00  0.00    +0.000 C 
ATOM     15  C   UNL     1     -27.411  12.598  10.244  0.00  0.00    +0.000 C 
ATOM     16  C   UNL     1     -32.298  15.904  13.300  0.00  0.00    +0.000 C 
ENDROOT
BRANCH  12  17
ATOM     17  O   UNL     1     -30.941  18.539  11.347  0.00  0.00    +0.000 OA
ATOM     18  H   UNL     1     -31.293  19.180  11.987  0.00  0.00    +0.000 HD
ENDBRANCH  12  17
TORSDOF 1
ENDMDL
MODEL 8
REMARK VINA RESULT:      -4.7      2.519      4.549
REMARK  Name = ./IMPHY000003_3D.pdb
REMARK  4 active torsions:
REMARK  status: ('A' for Active; 'I' for Inactive)
REMARK    1  A    between atoms: O_2  and  C_13
REMARK    2  A    between atoms: C_3  and  C_12
REMARK    3  A    between atoms: C_5  and  C_15
REMARK    4  A    between atoms: C_5  and  C_16
REMARK                            x       y       z     vdW  Elec       q    Type
REMARK                         _______ _______ _______ _____ _____    ______ ____
ROOT
ATOM      1  O   UNL     1     -15.509   3.031  -0.720  0.00  0.00    +0.000 OA
ATOM      2  C   UNL     1     -18.568   3.362   1.524  0.00  0.00    +0.000 C 
ATOM      3  C   UNL     1     -19.384   2.057   1.878  0.00  0.00    +0.000 C 
ATOM      4  C   UNL     1     -20.703   2.246   2.711  0.00  0.00    +0.000 C 
ATOM      5  C   UNL     1     -17.584   2.940   0.380  0.00  0.00    +0.000 C 
ATOM      6  C   UNL     1     -19.528   4.453   0.994  0.00  0.00    +0.000 C 
ATOM      7  C   UNL     1     -21.529   3.412   2.115  0.00  0.00    +0.000 C 
ATOM      8  C   UNL     1     -18.445   0.932   2.394  0.00  0.00    +0.000 C 
ATOM      9  C   UNL     1     -20.729   4.693   1.903  0.00  0.00    +0.000 C 
ATOM     10  C   UNL     1     -16.808   1.699   0.682  0.00  0.00    +0.000 C 
ATOM     11  C   UNL     1     -17.780   3.933   2.728  0.00  0.00    +0.000 C 
ATOM     12  C   UNL     1     -16.441   3.874  -0.012  0.00  0.00    +0.000 C 
ATOM     13  C   UNL     1     -17.173   0.797   1.600  0.00  0.00    +0.000 C 
ATOM     14  C   UNL     1     -20.491   2.477   4.220  0.00  0.00    +0.000 C 
ATOM     15  C   UNL     1     -21.570   0.965   2.593  0.00  0.00    +0.000 C 
ATOM     16  C   UNL     1     -15.543   1.731  -0.100  0.00  0.00    +0.000 C 
ENDROOT
BRANCH  12  17
ATOM     17  O   UNL     1     -16.926   4.914  -0.845  0.00  0.00    +0.000 OA
ATOM     18  H   UNL     1     -16.365   4.930  -1.639  0.00  0.00    +0.000 HD
ENDBRANCH  12  17
TORSDOF 1
ENDMDL
MODEL 9
REMARK VINA RESULT:      -4.7     13.725     16.051
REMARK  Name = ./IMPHY000003_3D.pdb
REMARK  4 active torsions:
REMARK  status: ('A' for Active; 'I' for Inactive)
REMARK    1  A    between atoms: O_2  and  C_13
REMARK    2  A    between atoms: C_3  and  C_12
REMARK    3  A    between atoms: C_5  and  C_15
REMARK    4  A    between atoms: C_5  and  C_16
REMARK                            x       y       z     vdW  Elec       q    Type
REMARK                         _______ _______ _______ _____ _____    ______ ____
ROOT
ATOM      1  O   UNL     1     -25.786   8.195  11.912  0.00  0.00    +0.000 OA
ATOM      2  C   UNL     1     -27.518  11.482  11.076  0.00  0.00    +0.000 C 
ATOM      3  C   UNL     1     -27.286  12.110   9.645  0.00  0.00    +0.000 C 
ATOM      4  C   UNL     1     -27.924  13.520   9.375  0.00  0.00    +0.000 C 
ATOM      5  C   UNL     1     -26.463  10.330  11.200  0.00  0.00    +0.000 C 
ATOM      6  C   UNL     1     -27.243  12.545  12.165  0.00  0.00    +0.000 C 
ATOM      7  C   UNL     1     -27.633  14.458  10.573  0.00  0.00    +0.000 C 
ATOM      8  C   UNL     1     -27.534  11.060   8.527  0.00  0.00    +0.000 C 
ATOM      9  C   UNL     1     -27.985  13.857  11.929  0.00  0.00    +0.000 C 
ATOM     10  C   UNL     1     -26.448   9.400  10.031  0.00  0.00    +0.000 C 
ATOM     11  C   UNL     1     -28.948  10.925  11.273  0.00  0.00    +0.000 C 
ATOM     12  C   UNL     1     -26.585   9.319  12.338  0.00  0.00    +0.000 C 
ATOM     13  C   UNL     1     -26.944   9.708   8.827  0.00  0.00    +0.000 C 
ATOM     14  C   UNL     1     -29.437  13.506   9.083  0.00  0.00    +0.000 C 
ATOM     15  C   UNL     1     -27.254  14.153   8.127  0.00  0.00    +0.000 C 
ATOM     16  C   UNL     1     -25.924   8.083  10.482  0.00  0.00    +0.000 C 
ENDROOT
BRANCH  12  17
ATOM     17  O   UNL     1     -26.083   9.875  13.541  0.00  0.00    +0.000 OA
ATOM     18  H   UNL     1     -25.427   9.251  13.894  0.00  0.00    +0.000 HD
ENDBRANCH  12  17
TORSDOF 1
ENDMDL
