MODEL 1
REMARK VINA RESULT:      -6.1      0.000      0.000
REMARK  Name = ./IMPHY000001_3D.pdb
REMARK  10 active torsions:
REMARK  status: ('A' for Active; 'I' for Inactive)
REMARK    1  A    between atoms: O_3  and  C_19
REMARK    2  A    between atoms: O_3  and  C_25
REMARK    3  A    between atoms: O_4  and  C_20
REMARK    4  A    between atoms: O_4  and  C_26
REMARK    5  A    between atoms: O_5  and  C_23
REMARK    6  A    between atoms: O_6  and  C_24
REMARK    7  A    between atoms: C_7  and  C_10
REMARK    8  A    between atoms: C_8  and  C_11
REMARK    9  A    between atoms: C_10  and  C_13
REMARK   10  A    between atoms: C_11  and  C_14
REMARK                            x       y       z     vdW  Elec       q    Type
REMARK                         _______ _______ _______ _____ _____    ______ ____
ROOT
ATOM      1  O   UNL     1     -13.806   2.582   0.311  0.00  0.00    +0.000 OA
ATOM      2  O   UNL     1     -13.355   4.677   1.122  0.00  0.00    +0.000 OA
ATOM      3  C   UNL     1     -15.894   2.217   1.314  0.00  0.00    +0.000 C 
ATOM      4  C   UNL     1     -15.229   3.404   2.002  0.00  0.00    +0.000 C 
ATOM      5  C   UNL     1     -14.724   1.531   0.636  0.00  0.00    +0.000 C 
ATOM      6  C   UNL     1     -14.039   3.664   1.114  0.00  0.00    +0.000 C 
ENDROOT
BRANCH   3   7
ATOM      7  C   UNL     1     -16.929   2.681   0.285  0.00  0.00    +0.000 C 
BRANCH   7   8
ATOM      8  C   UNL     1     -17.973   3.576   0.901  0.00  0.00    +0.000 A 
ATOM      9  C   UNL     1     -18.876   3.045   1.809  0.00  0.00    +0.000 A 
ATOM     10  C   UNL     1     -18.014   4.917   0.549  0.00  0.00    +0.000 A 
ATOM     11  C   UNL     1     -19.843   3.874   2.378  0.00  0.00    +0.000 A 
ATOM     12  C   UNL     1     -18.981   5.745   1.118  0.00  0.00    +0.000 A 
ATOM     13  C   UNL     1     -19.895   5.224   2.033  0.00  0.00    +0.000 A 
BRANCH  11  14
ATOM     14  O   UNL     1     -20.732   3.352   3.270  0.00  0.00    +0.000 OA
ATOM     15  C   UNL     1     -21.944   2.822   2.741  0.00  0.00    +0.000 C 
ENDBRANCH  11  14
BRANCH  13  16
ATOM     16  O   UNL     1     -20.835   6.043   2.583  0.00  0.00    +0.000 OA
ATOM     17  H   UNL     1     -20.500   6.956   2.552  0.00  0.00    +0.000 HD
ENDBRANCH  13  16
ENDBRANCH   7   8
ENDBRANCH   3   7
BRANCH   4  18
ATOM     18  C   UNL     1     -14.759   3.087   3.415  0.00  0.00    +0.000 C 
BRANCH  18  19
ATOM     19  C   UNL     1     -15.434   3.960   4.441  0.00  0.00    +0.000 A 
ATOM     20  C   UNL     1     -14.914   4.026   5.726  0.00  0.00    +0.000 A 
ATOM     21  C   UNL     1     -16.563   4.682   4.087  0.00  0.00    +0.000 A 
ATOM     22  C   UNL     1     -15.538   4.833   6.677  0.00  0.00    +0.000 A 
ATOM     23  C   UNL     1     -17.187   5.490   5.038  0.00  0.00    +0.000 A 
ATOM     24  C   UNL     1     -16.675   5.564   6.333  0.00  0.00    +0.000 A 
BRANCH  22  25
ATOM     25  O   UNL     1     -15.030   4.897   7.938  0.00  0.00    +0.000 OA
ATOM     26  C   UNL     1     -13.994   5.849   8.173  0.00  0.00    +0.000 C 
ENDBRANCH  22  25
BRANCH  24  27
ATOM     27  O   UNL     1     -17.293   6.356   7.252  0.00  0.00    +0.000 OA
ATOM     28  H   UNL     1     -17.048   7.282   7.079  0.00  0.00    +0.000 HD
ENDBRANCH  24  27
ENDBRANCH  18  19
ENDBRANCH   4  18
TORSDOF 8
ENDMDL
MODEL 2
REMARK VINA RESULT:      -5.9      2.199      5.409
REMARK  Name = ./IMPHY000001_3D.pdb
REMARK  10 active torsions:
REMARK  status: ('A' for Active; 'I' for Inactive)
REMARK    1  A    between atoms: O_3  and  C_19
REMARK    2  A    between atoms: O_3  and  C_25
REMARK    3  A    between atoms: O_4  and  C_20
REMARK    4  A    between atoms: O_4  and  C_26
REMARK    5  A    between atoms: O_5  and  C_23
REMARK    6  A    between atoms: O_6  and  C_24
REMARK    7  A    between atoms: C_7  and  C_10
REMARK    8  A    between atoms: C_8  and  C_11
REMARK    9  A    between atoms: C_10  and  C_13
REMARK   10  A    between atoms: C_11  and  C_14
REMARK                            x       y       z     vdW  Elec       q    Type
REMARK                         _______ _______ _______ _____ _____    ______ ____
ROOT
ATOM      1  O   UNL     1     -16.649   4.733   7.186  0.00  0.00    +0.000 OA
ATOM      2  O   UNL     1     -15.805   2.642   7.598  0.00  0.00    +0.000 OA
ATOM      3  C   UNL     1     -16.403   4.800   4.854  0.00  0.00    +0.000 C 
ATOM      4  C   UNL     1     -15.571   3.641   5.395  0.00  0.00    +0.000 C 
ATOM      5  C   UNL     1     -16.618   5.654   6.089  0.00  0.00    +0.000 C 
ATOM      6  C   UNL     1     -16.010   3.576   6.835  0.00  0.00    +0.000 C 
ENDROOT
BRANCH   3   7
ATOM      7  C   UNL     1     -17.738   4.308   4.289  0.00  0.00    +0.000 C 
BRANCH   7   8
ATOM      8  C   UNL     1     -17.831   4.522   2.800  0.00  0.00    +0.000 A 
ATOM      9  C   UNL     1     -16.873   3.963   1.969  0.00  0.00    +0.000 A 
ATOM     10  C   UNL     1     -18.874   5.278   2.284  0.00  0.00    +0.000 A 
ATOM     11  C   UNL     1     -16.959   4.162   0.591  0.00  0.00    +0.000 A 
ATOM     12  C   UNL     1     -18.960   5.477   0.907  0.00  0.00    +0.000 A 
ATOM     13  C   UNL     1     -18.003   4.918   0.060  0.00  0.00    +0.000 A 
BRANCH  11  14
ATOM     14  O   UNL     1     -16.017   3.613  -0.226  0.00  0.00    +0.000 OA
ATOM     15  C   UNL     1     -15.768   2.217  -0.081  0.00  0.00    +0.000 C 
ENDBRANCH  11  14
BRANCH  13  16
ATOM     16  O   UNL     1     -18.098   5.120  -1.284  0.00  0.00    +0.000 OA
ATOM     17  H   UNL     1     -18.343   6.049  -1.437  0.00  0.00    +0.000 HD
ENDBRANCH  13  16
ENDBRANCH   7   8
ENDBRANCH   3   7
BRANCH   4  18
ATOM     18  C   UNL     1     -14.073   3.899   5.323  0.00  0.00    +0.000 C 
BRANCH  18  19
ATOM     19  C   UNL     1     -13.511   3.583   3.962  0.00  0.00    +0.000 A 
ATOM     20  C   UNL     1     -13.179   2.272   3.650  0.00  0.00    +0.000 A 
ATOM     21  C   UNL     1     -13.334   4.605   3.041  0.00  0.00    +0.000 A 
ATOM     22  C   UNL     1     -12.659   1.978   2.389  0.00  0.00    +0.000 A 
ATOM     23  C   UNL     1     -12.814   4.311   1.781  0.00  0.00    +0.000 A 
ATOM     24  C   UNL     1     -12.476   2.998   1.455  0.00  0.00    +0.000 A 
BRANCH  22  25
ATOM     25  O   UNL     1     -12.332   0.692   2.084  0.00  0.00    +0.000 OA
ATOM     26  C   UNL     1     -13.382  -0.149   1.609  0.00  0.00    +0.000 C 
ENDBRANCH  22  25
BRANCH  24  27
ATOM     27  O   UNL     1     -11.970   2.723   0.222  0.00  0.00    +0.000 OA
ATOM     28  H   UNL     1     -11.676   1.795   0.207  0.00  0.00    +0.000 HD
ENDBRANCH  24  27
ENDBRANCH  18  19
ENDBRANCH   4  18
TORSDOF 8
ENDMDL
MODEL 3
REMARK VINA RESULT:      -5.8      2.213      6.765
REMARK  Name = ./IMPHY000001_3D.pdb
REMARK  10 active torsions:
REMARK  status: ('A' for Active; 'I' for Inactive)
REMARK    1  A    between atoms: O_3  and  C_19
REMARK    2  A    between atoms: O_3  and  C_25
REMARK    3  A    between atoms: O_4  and  C_20
REMARK    4  A    between atoms: O_4  and  C_26
REMARK    5  A    between atoms: O_5  and  C_23
REMARK    6  A    between atoms: O_6  and  C_24
REMARK    7  A    between atoms: C_7  and  C_10
REMARK    8  A    between atoms: C_8  and  C_11
REMARK    9  A    between atoms: C_10  and  C_13
REMARK   10  A    between atoms: C_11  and  C_14
REMARK                            x       y       z     vdW  Elec       q    Type
REMARK                         _______ _______ _______ _____ _____    ______ ____
ROOT
ATOM      1  O   UNL     1     -16.259   4.166   7.320  0.00  0.00    +0.000 OA
ATOM      2  O   UNL     1     -17.005   6.152   6.453  0.00  0.00    +0.000 OA
ATOM      3  C   UNL     1     -15.456   3.162   5.358  0.00  0.00    +0.000 C 
ATOM      4  C   UNL     1     -16.332   4.348   4.970  0.00  0.00    +0.000 C 
ATOM      5  C   UNL     1     -15.886   2.890   6.787  0.00  0.00    +0.000 C 
ATOM      6  C   UNL     1     -16.570   5.020   6.298  0.00  0.00    +0.000 C 
ENDROOT
BRANCH   3   7
ATOM      7  C   UNL     1     -13.970   3.525   5.293  0.00  0.00    +0.000 C 
BRANCH   7   8
ATOM      8  C   UNL     1     -13.400   3.313   3.914  0.00  0.00    +0.000 A 
ATOM      9  C   UNL     1     -12.922   2.061   3.558  0.00  0.00    +0.000 A 
ATOM     10  C   UNL     1     -13.361   4.375   3.022  0.00  0.00    +0.000 A 
ATOM     11  C   UNL     1     -12.394   1.865   2.283  0.00  0.00    +0.000 A 
ATOM     12  C   UNL     1     -12.833   4.179   1.746  0.00  0.00    +0.000 A 
ATOM     13  C   UNL     1     -12.350   2.924   1.376  0.00  0.00    +0.000 A 
BRANCH  11  14
ATOM     14  O   UNL     1     -11.923   0.635   1.934  0.00  0.00    +0.000 OA
ATOM     15  C   UNL     1     -10.962   0.039   2.801  0.00  0.00    +0.000 C 
ENDBRANCH  11  14
BRANCH  13  16
ATOM     16  O   UNL     1     -11.836   2.746   0.127  0.00  0.00    +0.000 OA
ATOM     17  H   UNL     1     -11.864   3.598  -0.340  0.00  0.00    +0.000 HD
ENDBRANCH  13  16
ENDBRANCH   7   8
ENDBRANCH   3   7
BRANCH   4  18
ATOM     18  C   UNL     1     -17.662   3.932   4.357  0.00  0.00    +0.000 C 
BRANCH  18  19
ATOM     19  C   UNL     1     -17.753   4.307   2.901  0.00  0.00    +0.000 A 
ATOM     20  C   UNL     1     -16.804   3.822   2.012  0.00  0.00    +0.000 A 
ATOM     21  C   UNL     1     -18.782   5.131   2.471  0.00  0.00    +0.000 A 
ATOM     22  C   UNL     1     -16.888   4.169   0.664  0.00  0.00    +0.000 A 
ATOM     23  C   UNL     1     -18.866   5.479   1.123  0.00  0.00    +0.000 A 
ATOM     24  C   UNL     1     -17.918   4.998   0.220  0.00  0.00    +0.000 A 
BRANCH  22  25
ATOM     25  O   UNL     1     -15.956   3.694  -0.208  0.00  0.00    +0.000 OA
ATOM     26  C   UNL     1     -16.203   2.415  -0.788  0.00  0.00    +0.000 C 
ENDBRANCH  22  25
BRANCH  24  27
ATOM     27  O   UNL     1     -18.010   5.343  -1.094  0.00  0.00    +0.000 OA
ATOM     28  H   UNL     1     -18.157   4.536  -1.617  0.00  0.00    +0.000 HD
ENDBRANCH  24  27
ENDBRANCH  18  19
ENDBRANCH   4  18
TORSDOF 8
ENDMDL
MODEL 4
REMARK VINA RESULT:      -5.7      2.461      5.511
REMARK  Name = ./IMPHY000001_3D.pdb
REMARK  10 active torsions:
REMARK  status: ('A' for Active; 'I' for Inactive)
REMARK    1  A    between atoms: O_3  and  C_19
REMARK    2  A    between atoms: O_3  and  C_25
REMARK    3  A    between atoms: O_4  and  C_20
REMARK    4  A    between atoms: O_4  and  C_26
REMARK    5  A    between atoms: O_5  and  C_23
REMARK    6  A    between atoms: O_6  and  C_24
REMARK    7  A    between atoms: C_7  and  C_10
REMARK    8  A    between atoms: C_8  and  C_11
REMARK    9  A    between atoms: C_10  and  C_13
REMARK   10  A    between atoms: C_11  and  C_14
REMARK                            x       y       z     vdW  Elec       q    Type
REMARK                         _______ _______ _______ _____ _____    ______ ____
ROOT
ATOM      1  O   UNL     1     -13.829   2.377   4.265  0.00  0.00    +0.000 OA
ATOM      2  O   UNL     1     -14.662   0.560   3.144  0.00  0.00    +0.000 OA
ATOM      3  C   UNL     1     -15.384   3.998   3.593  0.00  0.00    +0.000 C 
ATOM      4  C   UNL     1     -15.527   2.784   2.681  0.00  0.00    +0.000 C 
ATOM      5  C   UNL     1     -14.008   3.796   4.195  0.00  0.00    +0.000 C 
ATOM      6  C   UNL     1     -14.658   1.762   3.368  0.00  0.00    +0.000 C 
ENDROOT
BRANCH   3   7
ATOM      7  C   UNL     1     -16.463   4.004   4.680  0.00  0.00    +0.000 C 
BRANCH   7   8
ATOM      8  C   UNL     1     -17.852   3.995   4.095  0.00  0.00    +0.000 A 
ATOM      9  C   UNL     1     -18.671   2.896   4.300  0.00  0.00    +0.000 A 
ATOM     10  C   UNL     1     -18.288   5.088   3.359  0.00  0.00    +0.000 A 
ATOM     11  C   UNL     1     -19.956   2.888   3.758  0.00  0.00    +0.000 A 
ATOM     12  C   UNL     1     -19.573   5.079   2.816  0.00  0.00    +0.000 A 
ATOM     13  C   UNL     1     -20.407   3.979   3.017  0.00  0.00    +0.000 A 
BRANCH  11  14
ATOM     14  O   UNL     1     -20.761   1.807   3.959  0.00  0.00    +0.000 OA
ATOM     15  C   UNL     1     -21.577   1.815   5.128  0.00  0.00    +0.000 C 
ENDBRANCH  11  14
BRANCH  13  16
ATOM     16  O   UNL     1     -21.660   3.983   2.482  0.00  0.00    +0.000 OA
ATOM     17  H   UNL     1     -21.932   3.061   2.334  0.00  0.00    +0.000 HD
ENDBRANCH  13  16
ENDBRANCH   7   8
ENDBRANCH   3   7
BRANCH   4  18
ATOM     18  C   UNL     1     -15.012   3.034   1.270  0.00  0.00    +0.000 C 
BRANCH  18  19
ATOM     19  C   UNL     1     -16.136   3.201   0.282  0.00  0.00    +0.000 A 
ATOM     20  C   UNL     1     -16.444   2.160  -0.583  0.00  0.00    +0.000 A 
ATOM     21  C   UNL     1     -16.846   4.392   0.250  0.00  0.00    +0.000 A 
ATOM     22  C   UNL     1     -17.485   2.314  -1.498  0.00  0.00    +0.000 A 
ATOM     23  C   UNL     1     -17.887   4.546  -0.666  0.00  0.00    +0.000 A 
ATOM     24  C   UNL     1     -18.206   3.507  -1.540  0.00  0.00    +0.000 A 
BRANCH  22  25
ATOM     25  O   UNL     1     -17.785   1.293  -2.347  0.00  0.00    +0.000 OA
ATOM     26  C   UNL     1     -18.271   0.085  -1.764  0.00  0.00    +0.000 C 
ENDBRANCH  22  25
BRANCH  24  27
ATOM     27  O   UNL     1     -19.224   3.669  -2.429  0.00  0.00    +0.000 OA
ATOM     28  H   UNL     1     -20.019   3.235  -2.073  0.00  0.00    +0.000 HD
ENDBRANCH  24  27
ENDBRANCH  18  19
ENDBRANCH   4  18
TORSDOF 8
ENDMDL
MODEL 5
REMARK VINA RESULT:      -5.7      1.292      6.346
REMARK  Name = ./IMPHY000001_3D.pdb
REMARK  10 active torsions:
REMARK  status: ('A' for Active; 'I' for Inactive)
REMARK    1  A    between atoms: O_3  and  C_19
REMARK    2  A    between atoms: O_3  and  C_25
REMARK    3  A    between atoms: O_4  and  C_20
REMARK    4  A    between atoms: O_4  and  C_26
REMARK    5  A    between atoms: O_5  and  C_23
REMARK    6  A    between atoms: O_6  and  C_24
REMARK    7  A    between atoms: C_7  and  C_10
REMARK    8  A    between atoms: C_8  and  C_11
REMARK    9  A    between atoms: C_10  and  C_13
REMARK   10  A    between atoms: C_11  and  C_14
REMARK                            x       y       z     vdW  Elec       q    Type
REMARK                         _______ _______ _______ _____ _____    ______ ____
ROOT
ATOM      1  O   UNL     1     -20.488   4.207   2.886  0.00  0.00    +0.000 OA
ATOM      2  O   UNL     1     -20.521   5.503   0.996  0.00  0.00    +0.000 OA
ATOM      3  C   UNL     1     -18.170   4.036   3.201  0.00  0.00    +0.000 C 
ATOM      4  C   UNL     1     -18.429   4.554   1.791  0.00  0.00    +0.000 C 
ATOM      5  C   UNL     1     -19.507   3.426   3.578  0.00  0.00    +0.000 C 
ATOM      6  C   UNL     1     -19.909   4.836   1.818  0.00  0.00    +0.000 C 
ENDROOT
BRANCH   3   7
ATOM      7  C   UNL     1     -17.802   5.178   4.152  0.00  0.00    +0.000 C 
BRANCH   7   8
ATOM      8  C   UNL     1     -16.487   4.930   4.846  0.00  0.00    +0.000 A 
ATOM      9  C   UNL     1     -16.157   5.675   5.967  0.00  0.00    +0.000 A 
ATOM     10  C   UNL     1     -15.627   3.961   4.350  0.00  0.00    +0.000 A 
ATOM     11  C   UNL     1     -14.939   5.447   6.608  0.00  0.00    +0.000 A 
ATOM     12  C   UNL     1     -14.410   3.733   4.991  0.00  0.00    +0.000 A 
ATOM     13  C   UNL     1     -14.066   4.476   6.120  0.00  0.00    +0.000 A 
BRANCH  11  14
ATOM     14  O   UNL     1     -14.614   6.180   7.710  0.00  0.00    +0.000 OA
ATOM     15  C   UNL     1     -15.352   5.922   8.901  0.00  0.00    +0.000 C 
ENDBRANCH  11  14
BRANCH  13  16
ATOM     16  O   UNL     1     -12.874   4.243   6.737  0.00  0.00    +0.000 OA
ATOM     17  H   UNL     1     -12.170   4.279   6.067  0.00  0.00    +0.000 HD
ENDBRANCH  13  16
ENDBRANCH   7   8
ENDBRANCH   3   7
BRANCH   4  18
ATOM     18  C   UNL     1     -18.120   3.525   0.712  0.00  0.00    +0.000 C 
BRANCH  18  19
ATOM     19  C   UNL     1     -16.756   2.912   0.893  0.00  0.00    +0.000 A 
ATOM     20  C   UNL     1     -15.627   3.702   0.729  0.00  0.00    +0.000 A 
ATOM     21  C   UNL     1     -16.649   1.568   1.221  0.00  0.00    +0.000 A 
ATOM     22  C   UNL     1     -14.364   3.135   0.896  0.00  0.00    +0.000 A 
ATOM     23  C   UNL     1     -15.386   1.001   1.388  0.00  0.00    +0.000 A 
ATOM     24  C   UNL     1     -14.243   1.784   1.225  0.00  0.00    +0.000 A 
BRANCH  22  25
ATOM     25  O   UNL     1     -13.256   3.909   0.734  0.00  0.00    +0.000 OA
ATOM     26  C   UNL     1     -12.827   4.673   1.859  0.00  0.00    +0.000 C 
ENDBRANCH  22  25
BRANCH  24  27
ATOM     27  O   UNL     1     -13.016   1.220   1.392  0.00  0.00    +0.000 OA
ATOM     28  H   UNL     1     -12.629   1.556   2.220  0.00  0.00    +0.000 HD
ENDBRANCH  24  27
ENDBRANCH  18  19
ENDBRANCH   4  18
TORSDOF 8
ENDMDL
MODEL 6
REMARK VINA RESULT:      -5.6      1.189      5.845
REMARK  Name = ./IMPHY000001_3D.pdb
REMARK  10 active torsions:
REMARK  status: ('A' for Active; 'I' for Inactive)
REMARK    1  A    between atoms: O_3  and  C_19
REMARK    2  A    between atoms: O_3  and  C_25
REMARK    3  A    between atoms: O_4  and  C_20
REMARK    4  A    between atoms: O_4  and  C_26
REMARK    5  A    between atoms: O_5  and  C_23
REMARK    6  A    between atoms: O_6  and  C_24
REMARK    7  A    between atoms: C_7  and  C_10
REMARK    8  A    between atoms: C_8  and  C_11
REMARK    9  A    between atoms: C_10  and  C_13
REMARK   10  A    between atoms: C_11  and  C_14
REMARK                            x       y       z     vdW  Elec       q    Type
REMARK                         _______ _______ _______ _____ _____    ______ ____
ROOT
ATOM      1  O   UNL     1     -13.131   2.998   0.702  0.00  0.00    +0.000 OA
ATOM      2  O   UNL     1     -14.534   1.292   0.094  0.00  0.00    +0.000 OA
ATOM      3  C   UNL     1     -14.528   4.136   2.203  0.00  0.00    +0.000 C 
ATOM      4  C   UNL     1     -15.379   3.163   1.394  0.00  0.00    +0.000 C 
ATOM      5  C   UNL     1     -13.279   4.265   1.354  0.00  0.00    +0.000 C 
ATOM      6  C   UNL     1     -14.337   2.355   0.664  0.00  0.00    +0.000 C 
ENDROOT
BRANCH   3   7
ATOM      7  C   UNL     1     -14.195   3.564   3.584  0.00  0.00    +0.000 C 
BRANCH   7   8
ATOM      8  C   UNL     1     -14.898   4.312   4.687  0.00  0.00    +0.000 A 
ATOM      9  C   UNL     1     -14.155   4.853   5.726  0.00  0.00    +0.000 A 
ATOM     10  C   UNL     1     -16.278   4.448   4.647  0.00  0.00    +0.000 A 
ATOM     11  C   UNL     1     -14.806   5.544   6.747  0.00  0.00    +0.000 A 
ATOM     12  C   UNL     1     -16.929   5.139   5.668  0.00  0.00    +0.000 A 
ATOM     13  C   UNL     1     -16.193   5.688   6.718  0.00  0.00    +0.000 A 
BRANCH  11  14
ATOM     14  O   UNL     1     -14.076   6.074   7.768  0.00  0.00    +0.000 OA
ATOM     15  C   UNL     1     -13.520   5.160   8.710  0.00  0.00    +0.000 C 
ENDBRANCH  11  14
BRANCH  13  16
ATOM     16  O   UNL     1     -16.840   6.362   7.710  0.00  0.00    +0.000 OA
ATOM     17  H   UNL     1     -16.383   6.183   8.549  0.00  0.00    +0.000 HD
ENDBRANCH  13  16
ENDBRANCH   7   8
ENDBRANCH   3   7
BRANCH   4  18
ATOM     18  C   UNL     1     -16.287   3.860   0.389  0.00  0.00    +0.000 C 
BRANCH  18  19
ATOM     19  C   UNL     1     -17.718   3.904   0.860  0.00  0.00    +0.000 A 
ATOM     20  C   UNL     1     -18.454   2.728   0.911  0.00  0.00    +0.000 A 
ATOM     21  C   UNL     1     -18.277   5.116   1.233  0.00  0.00    +0.000 A 
ATOM     22  C   UNL     1     -19.778   2.768   1.346  0.00  0.00    +0.000 A 
ATOM     23  C   UNL     1     -19.602   5.156   1.668  0.00  0.00    +0.000 A 
ATOM     24  C   UNL     1     -20.352   3.982   1.724  0.00  0.00    +0.000 A 
BRANCH  22  25
ATOM     25  O   UNL     1     -20.502   1.615   1.395  0.00  0.00    +0.000 OA
ATOM     26  C   UNL     1     -20.262   0.746   2.500  0.00  0.00    +0.000 C 
ENDBRANCH  22  25
BRANCH  24  27
ATOM     27  O   UNL     1     -21.644   4.033   2.151  0.00  0.00    +0.000 OA
ATOM     28  H   UNL     1     -21.808   3.273   2.736  0.00  0.00    +0.000 HD
ENDBRANCH  24  27
ENDBRANCH  18  19
ENDBRANCH   4  18
TORSDOF 8
ENDMDL
MODEL 7
REMARK VINA RESULT:      -5.5      1.632      5.295
REMARK  Name = ./IMPHY000001_3D.pdb
REMARK  10 active torsions:
REMARK  status: ('A' for Active; 'I' for Inactive)
REMARK    1  A    between atoms: O_3  and  C_19
REMARK    2  A    between atoms: O_3  and  C_25
REMARK    3  A    between atoms: O_4  and  C_20
REMARK    4  A    between atoms: O_4  and  C_26
REMARK    5  A    between atoms: O_5  and  C_23
REMARK    6  A    between atoms: O_6  and  C_24
REMARK    7  A    between atoms: C_7  and  C_10
REMARK    8  A    between atoms: C_8  and  C_11
REMARK    9  A    between atoms: C_10  and  C_13
REMARK   10  A    between atoms: C_11  and  C_14
REMARK                            x       y       z     vdW  Elec       q    Type
REMARK                         _______ _______ _______ _____ _____    ______ ____
ROOT
ATOM      1  O   UNL     1     -20.465   5.226   1.083  0.00  0.00    +0.000 OA
ATOM      2  O   UNL     1     -21.239   3.197   1.813  0.00  0.00    +0.000 OA
ATOM      3  C   UNL     1     -18.168   4.921   1.446  0.00  0.00    +0.000 C 
ATOM      4  C   UNL     1     -18.925   3.831   2.199  0.00  0.00    +0.000 C 
ATOM      5  C   UNL     1     -19.243   5.963   1.207  0.00  0.00    +0.000 C 
ATOM      6  C   UNL     1     -20.332   4.007   1.688  0.00  0.00    +0.000 C 
ENDROOT
BRANCH   3   7
ATOM      7  C   UNL     1     -17.612   4.394   0.121  0.00  0.00    +0.000 C 
BRANCH   7   8
ATOM      8  C   UNL     1     -16.480   3.421   0.333  0.00  0.00    +0.000 A 
ATOM      9  C   UNL     1     -15.217   3.900   0.641  0.00  0.00    +0.000 A 
ATOM     10  C   UNL     1     -16.721   2.059   0.215  0.00  0.00    +0.000 A 
ATOM     11  C   UNL     1     -14.170   3.000   0.836  0.00  0.00    +0.000 A 
ATOM     12  C   UNL     1     -15.675   1.159   0.410  0.00  0.00    +0.000 A 
ATOM     13  C   UNL     1     -14.399   1.629   0.722  0.00  0.00    +0.000 A 
BRANCH  11  14
ATOM     14  O   UNL     1     -12.928   3.472   1.138  0.00  0.00    +0.000 OA
ATOM     15  C   UNL     1     -12.857   4.628   1.968  0.00  0.00    +0.000 C 
ENDBRANCH  11  14
BRANCH  13  16
ATOM     16  O   UNL     1     -13.385   0.739   0.910  0.00  0.00    +0.000 OA
ATOM     17  H   UNL     1     -13.538  -0.026   0.330  0.00  0.00    +0.000 HD
ENDBRANCH  13  16
ENDBRANCH   7   8
ENDBRANCH   3   7
BRANCH   4  18
ATOM     18  C   UNL     1     -18.898   4.022   3.709  0.00  0.00    +0.000 C 
BRANCH  18  19
ATOM     19  C   UNL     1     -17.495   4.190   4.230  0.00  0.00    +0.000 A 
ATOM     20  C   UNL     1     -16.561   3.187   4.008  0.00  0.00    +0.000 A 
ATOM     21  C   UNL     1     -17.157   5.342   4.924  0.00  0.00    +0.000 A 
ATOM     22  C   UNL     1     -15.262   3.341   4.490  0.00  0.00    +0.000 A 
ATOM     23  C   UNL     1     -15.857   5.496   5.407  0.00  0.00    +0.000 A 
ATOM     24  C   UNL     1     -14.910   4.496   5.190  0.00  0.00    +0.000 A 
BRANCH  22  25
ATOM     25  O   UNL     1     -14.346   2.357   4.274  0.00  0.00    +0.000 OA
ATOM     26  C   UNL     1     -14.822   1.012   4.297  0.00  0.00    +0.000 C 
ENDBRANCH  22  25
BRANCH  24  27
ATOM     27  O   UNL     1     -13.645   4.658   5.665  0.00  0.00    +0.000 OA
ATOM     28  H   UNL     1     -13.678   4.677   6.638  0.00  0.00    +0.000 HD
ENDBRANCH  24  27
ENDBRANCH  18  19
ENDBRANCH   4  18
TORSDOF 8
ENDMDL
MODEL 8
REMARK VINA RESULT:      -5.5     13.106     16.161
REMARK  Name = ./IMPHY000001_3D.pdb
REMARK  10 active torsions:
REMARK  status: ('A' for Active; 'I' for Inactive)
REMARK    1  A    between atoms: O_3  and  C_19
REMARK    2  A    between atoms: O_3  and  C_25
REMARK    3  A    between atoms: O_4  and  C_20
REMARK    4  A    between atoms: O_4  and  C_26
REMARK    5  A    between atoms: O_5  and  C_23
REMARK    6  A    between atoms: O_6  and  C_24
REMARK    7  A    between atoms: C_7  and  C_10
REMARK    8  A    between atoms: C_8  and  C_11
REMARK    9  A    between atoms: C_10  and  C_13
REMARK   10  A    between atoms: C_11  and  C_14
REMARK                            x       y       z     vdW  Elec       q    Type
REMARK                         _______ _______ _______ _____ _____    ______ ____
ROOT
ATOM      1  O   UNL     1     -27.834  11.167  13.936  0.00  0.00    +0.000 OA
ATOM      2  O   UNL     1     -25.631  11.515  13.410  0.00  0.00    +0.000 OA
ATOM      3  C   UNL     1     -28.794  11.479  11.820  0.00  0.00    +0.000 C 
ATOM      4  C   UNL     1     -27.368  12.019  11.788  0.00  0.00    +0.000 C 
ATOM      5  C   UNL     1     -29.093  11.428  13.306  0.00  0.00    +0.000 C 
ATOM      6  C   UNL     1     -26.814  11.541  13.106  0.00  0.00    +0.000 C 
ENDROOT
BRANCH   3   7
ATOM      7  C   UNL     1     -28.873  10.083  11.197  0.00  0.00    +0.000 C 
BRANCH   7   8
ATOM      8  C   UNL     1     -28.026   9.973   9.955  0.00  0.00    +0.000 A 
ATOM      9  C   UNL     1     -26.854   9.233   9.992  0.00  0.00    +0.000 A 
ATOM     10  C   UNL     1     -28.432  10.615   8.794  0.00  0.00    +0.000 A 
ATOM     11  C   UNL     1     -26.070   9.133   8.843  0.00  0.00    +0.000 A 
ATOM     12  C   UNL     1     -27.648  10.514   7.645  0.00  0.00    +0.000 A 
ATOM     13  C   UNL     1     -26.467   9.772   7.669  0.00  0.00    +0.000 A 
BRANCH  11  14
ATOM     14  O   UNL     1     -24.917   8.406   8.879  0.00  0.00    +0.000 OA
ATOM     15  C   UNL     1     -24.958   7.160   9.570  0.00  0.00    +0.000 C 
ENDBRANCH  11  14
BRANCH  13  16
ATOM     16  O   UNL     1     -25.710   9.681   6.540  0.00  0.00    +0.000 OA
ATOM     17  H   UNL     1     -25.817  10.505   6.033  0.00  0.00    +0.000 HD
ENDBRANCH  13  16
ENDBRANCH   7   8
ENDBRANCH   3   7
BRANCH   4  18
ATOM     18  C   UNL     1     -27.308  13.539  11.724  0.00  0.00    +0.000 C 
BRANCH  18  19
ATOM     19  C   UNL     1     -27.956  14.076  10.475  0.00  0.00    +0.000 A 
ATOM     20  C   UNL     1     -29.171  14.742  10.570  0.00  0.00    +0.000 A 
ATOM     21  C   UNL     1     -27.331  13.898   9.250  0.00  0.00    +0.000 A 
ATOM     22  C   UNL     1     -29.772  15.239   9.413  0.00  0.00    +0.000 A 
ATOM     23  C   UNL     1     -27.932  14.395   8.094  0.00  0.00    +0.000 A 
ATOM     24  C   UNL     1     -29.153  15.065   8.176  0.00  0.00    +0.000 A 
BRANCH  22  25
ATOM     25  O   UNL     1     -30.964  15.890   9.506  0.00  0.00    +0.000 OA
ATOM     26  C   UNL     1     -31.220  16.606  10.713  0.00  0.00    +0.000 C 
ENDBRANCH  22  25
BRANCH  24  27
ATOM     27  O   UNL     1     -29.729  15.547   7.040  0.00  0.00    +0.000 OA
ATOM     28  H   UNL     1     -29.245  15.195   6.273  0.00  0.00    +0.000 HD
ENDBRANCH  24  27
ENDBRANCH  18  19
ENDBRANCH   4  18
TORSDOF 8
ENDMDL
MODEL 9
REMARK VINA RESULT:      -5.5      2.094      5.431
REMARK  Name = ./IMPHY000001_3D.pdb
REMARK  10 active torsions:
REMARK  status: ('A' for Active; 'I' for Inactive)
REMARK    1  A    between atoms: O_3  and  C_19
REMARK    2  A    between atoms: O_3  and  C_25
REMARK    3  A    between atoms: O_4  and  C_20
REMARK    4  A    between atoms: O_4  and  C_26
REMARK    5  A    between atoms: O_5  and  C_23
REMARK    6  A    between atoms: O_6  and  C_24
REMARK    7  A    between atoms: C_7  and  C_10
REMARK    8  A    between atoms: C_8  and  C_11
REMARK    9  A    between atoms: C_10  and  C_13
REMARK   10  A    between atoms: C_11  and  C_14
REMARK                            x       y       z     vdW  Elec       q    Type
REMARK                         _______ _______ _______ _____ _____    ______ ____
ROOT
ATOM      1  O   UNL     1     -14.232   2.886   5.194  0.00  0.00    +0.000 OA
ATOM      2  O   UNL     1     -14.457   5.154   5.432  0.00  0.00    +0.000 OA
ATOM      3  C   UNL     1     -15.563   2.558   3.292  0.00  0.00    +0.000 C 
ATOM      4  C   UNL     1     -15.855   3.946   3.853  0.00  0.00    +0.000 C 
ATOM      5  C   UNL     1     -14.916   1.857   4.470  0.00  0.00    +0.000 C 
ATOM      6  C   UNL     1     -14.781   4.103   4.898  0.00  0.00    +0.000 C 
ENDROOT
BRANCH   3   7
ATOM      7  C   UNL     1     -14.601   2.633   2.103  0.00  0.00    +0.000 C 
BRANCH   7   8
ATOM      8  C   UNL     1     -15.267   2.223   0.814  0.00  0.00    +0.000 A 
ATOM      9  C   UNL     1     -15.838   3.192   0.004  0.00  0.00    +0.000 A 
ATOM     10  C   UNL     1     -15.298   0.883   0.459  0.00  0.00    +0.000 A 
ATOM     11  C   UNL     1     -16.454   2.813  -1.188  0.00  0.00    +0.000 A 
ATOM     12  C   UNL     1     -15.914   0.504  -0.733  0.00  0.00    +0.000 A 
ATOM     13  C   UNL     1     -16.492   1.469  -1.557  0.00  0.00    +0.000 A 
BRANCH  11  14
ATOM     14  O   UNL     1     -17.017   3.766  -1.984  0.00  0.00    +0.000 OA
ATOM     15  C   UNL     1     -18.414   4.001  -1.824  0.00  0.00    +0.000 C 
ENDBRANCH  11  14
BRANCH  13  16
ATOM     16  O   UNL     1     -17.092   1.086  -2.719  0.00  0.00    +0.000 OA
ATOM     17  H   UNL     1     -16.597   0.333  -3.084  0.00  0.00    +0.000 HD
ENDBRANCH  13  16
ENDBRANCH   7   8
ENDBRANCH   3   7
BRANCH   4  18
ATOM     18  C   UNL     1     -17.227   4.048   4.505  0.00  0.00    +0.000 C 
BRANCH  18  19
ATOM     19  C   UNL     1     -18.321   4.242   3.487  0.00  0.00    +0.000 A 
ATOM     20  C   UNL     1     -19.416   3.389   3.493  0.00  0.00    +0.000 A 
ATOM     21  C   UNL     1     -18.218   5.267   2.560  0.00  0.00    +0.000 A 
ATOM     22  C   UNL     1     -20.429   3.567   2.551  0.00  0.00    +0.000 A 
ATOM     23  C   UNL     1     -19.231   5.446   1.618  0.00  0.00    +0.000 A 
ATOM     24  C   UNL     1     -20.336   4.595   1.613  0.00  0.00    +0.000 A 
BRANCH  22  25
ATOM     25  O   UNL     1     -21.502   2.730   2.556  0.00  0.00    +0.000 OA
ATOM     26  C   UNL     1     -22.514   2.976   3.532  0.00  0.00    +0.000 C 
ENDBRANCH  22  25
BRANCH  24  27
ATOM     27  O   UNL     1     -21.318   4.779   0.689  0.00  0.00    +0.000 OA
ATOM     28  H   UNL     1     -21.122   5.587   0.184  0.00  0.00    +0.000 HD
ENDBRANCH  24  27
ENDBRANCH  18  19
ENDBRANCH   4  18
TORSDOF 8
ENDMDL
