MODEL 1
REMARK VINA RESULT:      -6.5      0.000      0.000
REMARK  Name = ./IMPHY000002_3D.pdb
REMARK  25 active torsions:
REMARK  status: ('A' for Active; 'I' for Inactive)
REMARK    1  A    between atoms: O_2  and  C_21
REMARK    2  A    between atoms: O_2  and  C_37
REMARK    3  A    between atoms: O_3  and  C_23
REMARK    4  A    between atoms: O_3  and  C_36
REMARK    5  A    between atoms: O_4  and  C_34
REMARK    6  A    between atoms: O_4  and  C_39
REMARK    7  A    between atoms: O_9  and  C_46
REMARK    8  A    between atoms: O_9  and  C_54
REMARK    9  A    between atoms: O_10  and  C_48
REMARK   10  A    between atoms: O_10  and  C_55
REMARK   11  A    between atoms: O_12  and  C_56
REMARK   12  A    between atoms: O_13  and  C_57
REMARK   13  A    between atoms: O_13  and  C_61
REMARK   14  A    between atoms: O_14  and  C_59
REMARK   15  A    between atoms: C_17  and  C_28
REMARK   16  A    between atoms: C_19  and  C_30
REMARK   17  A    between atoms: C_24  and  C_33
REMARK   18  A    between atoms: C_33  and  C_35
REMARK   19  A    between atoms: C_36  and  C_38
REMARK   20  A    between atoms: C_37  and  C_40
REMARK   21  A    between atoms: C_38  and  C_41
REMARK   22  A    between atoms: C_38  and  C_43
REMARK   23  A    between atoms: C_41  and  C_49
REMARK   24  A    between atoms: C_47  and  C_52
REMARK   25  A    between atoms: C_58  and  C_60
REMARK                            x       y       z     vdW  Elec       q    Type
REMARK                         _______ _______ _______ _____ _____    ______ ____
ROOT
ATOM      1  O   UNL     1     -28.102   8.322  13.143  0.00  0.00    +0.000 OA
ATOM      2  C   UNL     1     -27.867   9.735  13.209  0.00  0.00    +0.000 C 
ATOM      3  C   UNL     1     -26.730   8.729  13.082  0.00  0.00    +0.000 C 
ATOM      4  C   UNL     1     -28.392  10.535  12.036  0.00  0.00    +0.000 C 
ATOM      5  C   UNL     1     -26.037   8.541  11.735  0.00  0.00    +0.000 C 
ATOM      6  C   UNL     1     -25.460   7.062  11.611  0.00  0.00    +0.000 C 
ATOM      7  C   UNL     1     -28.233  10.394  14.514  0.00  0.00    +0.000 C 
ATOM      8  C   UNL     1     -27.456  10.477  10.803  0.00  0.00    +0.000 C 
ATOM      9  C   UNL     1     -25.931   8.358  14.300  0.00  0.00    +0.000 C 
ATOM     10  C   UNL     1     -26.906   9.044  10.547  0.00  0.00    +0.000 C 
ATOM     11  C   UNL     1     -28.532  11.955  12.681  0.00  0.00    +0.000 C 
ATOM     12  C   UNL     1     -24.576   6.790  12.879  0.00  0.00    +0.000 C 
ATOM     13  C   UNL     1     -29.016  11.652  14.110  0.00  0.00    +0.000 C 
ATOM     14  C   UNL     1     -25.358   6.951  14.186  0.00  0.00    +0.000 C 
ATOM     15  C   UNL     1     -29.811  10.024  11.655  0.00  0.00    +0.000 C 
ATOM     16  C   UNL     1     -24.533   6.897  10.373  0.00  0.00    +0.000 C 
ATOM     17  C   UNL     1     -26.617   6.039  11.481  0.00  0.00    +0.000 C 
ATOM     18  C   UNL     1     -23.853   5.437  12.843  0.00  0.00    +0.000 C 
ATOM     19  C   UNL     1     -23.760   5.577  10.335  0.00  0.00    +0.000 C 
ATOM     20  C   UNL     1     -22.957   5.319  11.608  0.00  0.00    +0.000 C 
ENDROOT
BRANCH  11  22
ATOM     21  O   UNL     1     -26.136  12.205  12.956  0.00  0.00    +0.000 OA
ATOM     22  C   UNL     1     -27.228  12.754  12.807  0.00  0.00    +0.000 C 
ATOM     23  C   UNL     1     -27.354  14.255  12.874  0.00  0.00    +0.000 C 
ENDBRANCH  11  22
BRANCH  20  24
ATOM     24  O   UNL     1     -22.411   4.002  11.498  0.00  0.00    +0.000 OA
BRANCH  24  26
ATOM     25  O   UNL     1     -20.473   5.207  12.022  0.00  0.00    +0.000 OA
ATOM     26  C   UNL     1     -20.991   3.948  11.614  0.00  0.00    +0.000 C 
ATOM     27  C   UNL     1     -20.440   3.609  10.239  0.00  0.00    +0.000 C 
ATOM     28  C   UNL     1     -18.913   3.551  10.251  0.00  0.00    +0.000 C 
ATOM     29  C   UNL     1     -19.058   5.165  12.206  0.00  0.00    +0.000 C 
ATOM     30  C   UNL     1     -18.312   4.823  10.898  0.00  0.00    +0.000 C 
ATOM     31  C   UNL     1     -18.632   6.527  12.748  0.00  0.00    +0.000 C 
BRANCH  28  32
ATOM     32  O   UNL     1     -18.446   3.451   8.894  0.00  0.00    +0.000 OA
ATOM     33  C   UNL     1     -19.122   2.455   8.137  0.00  0.00    +0.000 C 
ENDBRANCH  28  32
BRANCH  30  34
ATOM     34  O   UNL     1     -16.931   4.650  11.261  0.00  0.00    +0.000 OA
BRANCH  34  36
ATOM     35  O   UNL     1     -14.722   4.570  10.538  0.00  0.00    +0.000 OA
ATOM     36  C   UNL     1     -15.994   5.184  10.322  0.00  0.00    +0.000 C 
ATOM     37  C   UNL     1     -15.873   6.702  10.602  0.00  0.00    +0.000 C 
ATOM     38  C   UNL     1     -14.435   7.200  10.344  0.00  0.00    +0.000 C 
ATOM     39  C   UNL     1     -13.790   4.907   9.495  0.00  0.00    +0.000 C 
ATOM     40  C   UNL     1     -13.781   6.421   9.193  0.00  0.00    +0.000 C 
ATOM     41  C   UNL     1     -12.424   4.433   9.977  0.00  0.00    +0.000 C 
BRANCH  40  42
ATOM     42  O   UNL     1     -14.505   6.665   7.978  0.00  0.00    +0.000 OA
ATOM     43  H   UNL     1     -14.624   7.633   7.926  0.00  0.00    +0.000 HD
ENDBRANCH  40  42
BRANCH  38  44
ATOM     44  O   UNL     1     -14.438   8.604  10.005  0.00  0.00    +0.000 OA
ATOM     45  C   UNL     1     -14.149   9.435  11.127  0.00  0.00    +0.000 C 
ENDBRANCH  38  44
BRANCH  37  46
ATOM     46  O   UNL     1     -16.829   7.433   9.808  0.00  0.00    +0.000 OA
ATOM     47  H   UNL     1     -16.401   8.280   9.583  0.00  0.00    +0.000 HD
ENDBRANCH  37  46
ENDBRANCH  34  36
ENDBRANCH  30  34
ENDBRANCH  24  26
ENDBRANCH  20  24
BRANCH  10  48
ATOM     48  O   UNL     1     -26.060   9.138   9.370  0.00  0.00    +0.000 OA
BRANCH  48  50
ATOM     49  O   UNL     1     -26.061   8.750   7.102  0.00  0.00    +0.000 OA
ATOM     50  C   UNL     1     -26.517   8.562   8.222  0.00  0.00    +0.000 C 
BRANCH  50  51
ATOM     51  C   UNL     1     -27.673   7.631   8.546  0.00  0.00    +0.000 C 
ATOM     52  C   UNL     1     -28.942   8.121   7.850  0.00  0.00    +0.000 C 
BRANCH  51  53
ATOM     53  C   UNL     1     -27.286   6.201   8.147  0.00  0.00    +0.000 C 
ATOM     54  C   UNL     1     -28.430   5.208   8.280  0.00  0.00    +0.000 C 
ENDBRANCH  51  53
ENDBRANCH  50  51
ENDBRANCH  48  50
ENDBRANCH  10  48
BRANCH   8  55
ATOM     55  O   UNL     1     -28.191  10.872   9.612  0.00  0.00    +0.000 OA
BRANCH  55  57
ATOM     56  O   UNL     1     -26.877  11.754   7.959  0.00  0.00    +0.000 OA
ATOM     57  C   UNL     1     -27.697  11.873   8.854  0.00  0.00    +0.000 C 
BRANCH  57  58
ATOM     58  C   UNL     1     -28.291  13.175   9.260  0.00  0.00    +0.000 A 
ATOM     59  C   UNL     1     -27.570  14.377   9.217  0.00  0.00    +0.000 A 
ATOM     60  C   UNL     1     -29.621  13.187   9.701  0.00  0.00    +0.000 A 
ATOM     61  C   UNL     1     -28.173  15.571   9.617  0.00  0.00    +0.000 A 
ATOM     62  C   UNL     1     -30.221  14.383  10.097  0.00  0.00    +0.000 A 
ATOM     63  C   UNL     1     -29.497  15.574  10.056  0.00  0.00    +0.000 A 
ENDBRANCH  57  58
ENDBRANCH  55  57
ENDBRANCH   8  55
TORSDOF 16
ENDMDL
MODEL 2
REMARK VINA RESULT:      -6.4      8.799     14.575
REMARK  Name = ./IMPHY000002_3D.pdb
REMARK  25 active torsions:
REMARK  status: ('A' for Active; 'I' for Inactive)
REMARK    1  A    between atoms: O_2  and  C_21
REMARK    2  A    between atoms: O_2  and  C_37
REMARK    3  A    between atoms: O_3  and  C_23
REMARK    4  A    between atoms: O_3  and  C_36
REMARK    5  A    between atoms: O_4  and  C_34
REMARK    6  A    between atoms: O_4  and  C_39
REMARK    7  A    between atoms: O_9  and  C_46
REMARK    8  A    between atoms: O_9  and  C_54
REMARK    9  A    between atoms: O_10  and  C_48
REMARK   10  A    between atoms: O_10  and  C_55
REMARK   11  A    between atoms: O_12  and  C_56
REMARK   12  A    between atoms: O_13  and  C_57
REMARK   13  A    between atoms: O_13  and  C_61
REMARK   14  A    between atoms: O_14  and  C_59
REMARK   15  A    between atoms: C_17  and  C_28
REMARK   16  A    between atoms: C_19  and  C_30
REMARK   17  A    between atoms: C_24  and  C_33
REMARK   18  A    between atoms: C_33  and  C_35
REMARK   19  A    between atoms: C_36  and  C_38
REMARK   20  A    between atoms: C_37  and  C_40
REMARK   21  A    between atoms: C_38  and  C_41
REMARK   22  A    between atoms: C_38  and  C_43
REMARK   23  A    between atoms: C_41  and  C_49
REMARK   24  A    between atoms: C_47  and  C_52
REMARK   25  A    between atoms: C_58  and  C_60
REMARK                            x       y       z     vdW  Elec       q    Type
REMARK                         _______ _______ _______ _____ _____    ______ ____
ROOT
ATOM      1  O   UNL     1     -12.369   1.434   3.652  0.00  0.00    +0.000 OA
ATOM      2  C   UNL     1     -12.922   0.197   3.179  0.00  0.00    +0.000 C 
ATOM      3  C   UNL     1     -13.655   1.085   4.178  0.00  0.00    +0.000 C 
ATOM      4  C   UNL     1     -13.265   0.161   1.706  0.00  0.00    +0.000 C 
ATOM      5  C   UNL     1     -14.826   1.943   3.706  0.00  0.00    +0.000 C 
ATOM      6  C   UNL     1     -14.959   3.244   4.615  0.00  0.00    +0.000 C 
ATOM      7  C   UNL     1     -12.174  -1.045   3.586  0.00  0.00    +0.000 C 
ATOM      8  C   UNL     1     -14.620   0.843   1.388  0.00  0.00    +0.000 C 
ATOM      9  C   UNL     1     -13.637   0.727   5.638  0.00  0.00    +0.000 C 
ATOM     10  C   UNL     1     -14.807   2.176   2.168  0.00  0.00    +0.000 C 
ATOM     11  C   UNL     1     -13.231  -1.378   1.427  0.00  0.00    +0.000 C 
ATOM     12  C   UNL     1     -15.016   2.773   6.111  0.00  0.00    +0.000 C 
ATOM     13  C   UNL     1     -12.060  -1.872   2.297  0.00  0.00    +0.000 C 
ATOM     14  C   UNL     1     -13.783   1.961   6.518  0.00  0.00    +0.000 C 
ATOM     15  C   UNL     1     -12.123   0.835   0.892  0.00  0.00    +0.000 C 
ATOM     16  C   UNL     1     -16.279   4.019   4.338  0.00  0.00    +0.000 C 
ATOM     17  C   UNL     1     -13.775   4.210   4.356  0.00  0.00    +0.000 C 
ATOM     18  C   UNL     1     -15.264   3.916   7.104  0.00  0.00    +0.000 C 
ATOM     19  C   UNL     1     -16.579   5.133   5.342  0.00  0.00    +0.000 C 
ATOM     20  C   UNL     1     -16.570   4.650   6.790  0.00  0.00    +0.000 C 
ENDROOT
BRANCH  11  22
ATOM     21  O   UNL     1     -14.897  -2.120   3.025  0.00  0.00    +0.000 OA
ATOM     22  C   UNL     1     -14.477  -2.157   1.867  0.00  0.00    +0.000 C 
ATOM     23  C   UNL     1     -15.097  -3.082   0.850  0.00  0.00    +0.000 C 
ENDBRANCH  11  22
BRANCH  20  24
ATOM     24  O   UNL     1     -16.716   5.808   7.618  0.00  0.00    +0.000 OA
BRANCH  24  26
ATOM     25  O   UNL     1     -17.434   5.523   9.828  0.00  0.00    +0.000 OA
ATOM     26  C   UNL     1     -16.305   5.613   8.969  0.00  0.00    +0.000 C 
ATOM     27  C   UNL     1     -15.478   6.825   9.366  0.00  0.00    +0.000 C 
ATOM     28  C   UNL     1     -15.007   6.725  10.816  0.00  0.00    +0.000 C 
ATOM     29  C   UNL     1     -17.053   5.267  11.180  0.00  0.00    +0.000 C 
ATOM     30  C   UNL     1     -16.187   6.404  11.765  0.00  0.00    +0.000 C 
ATOM     31  C   UNL     1     -18.338   5.079  11.983  0.00  0.00    +0.000 C 
BRANCH  28  32
ATOM     32  O   UNL     1     -14.428   7.986  11.200  0.00  0.00    +0.000 OA
ATOM     33  C   UNL     1     -15.349   9.069  11.149  0.00  0.00    +0.000 C 
ENDBRANCH  28  32
BRANCH  30  34
ATOM     34  O   UNL     1     -15.743   5.943  13.053  0.00  0.00    +0.000 OA
BRANCH  34  36
ATOM     35  O   UNL     1     -15.147   3.768  13.623  0.00  0.00    +0.000 OA
ATOM     36  C   UNL     1     -14.690   4.976  13.011  0.00  0.00    +0.000 C 
ATOM     37  C   UNL     1     -13.509   5.541  13.836  0.00  0.00    +0.000 C 
ATOM     38  C   UNL     1     -12.755   4.412  14.570  0.00  0.00    +0.000 C 
ATOM     39  C   UNL     1     -14.214   2.692  13.427  0.00  0.00    +0.000 C 
ATOM     40  C   UNL     1     -12.764   3.118  13.744  0.00  0.00    +0.000 C 
ATOM     41  C   UNL     1     -14.669   1.563  14.345  0.00  0.00    +0.000 C 
BRANCH  40  42
ATOM     42  O   UNL     1     -12.055   3.329  12.514  0.00  0.00    +0.000 OA
ATOM     43  H   UNL     1     -12.244   2.550  11.957  0.00  0.00    +0.000 HD
ENDBRANCH  40  42
BRANCH  38  44
ATOM     44  O   UNL     1     -11.382   4.793  14.811  0.00  0.00    +0.000 OA
ATOM     45  C   UNL     1     -10.760   3.983  15.805  0.00  0.00    +0.000 C 
ENDBRANCH  38  44
BRANCH  37  46
ATOM     46  O   UNL     1     -12.622   6.295  12.984  0.00  0.00    +0.000 OA
ATOM     47  H   UNL     1     -12.054   5.639  12.540  0.00  0.00    +0.000 HD
ENDBRANCH  37  46
ENDBRANCH  34  36
ENDBRANCH  30  34
ENDBRANCH  24  26
ENDBRANCH  20  24
BRANCH  10  48
ATOM     48  O   UNL     1     -16.102   2.701   1.770  0.00  0.00    +0.000 OA
BRANCH  48  50
ATOM     49  O   UNL     1     -15.151   4.209   0.315  0.00  0.00    +0.000 OA
ATOM     50  C   UNL     1     -16.110   3.791   0.951  0.00  0.00    +0.000 C 
BRANCH  50  51
ATOM     51  C   UNL     1     -17.501   4.401   0.930  0.00  0.00    +0.000 C 
ATOM     52  C   UNL     1     -17.873   4.794  -0.499  0.00  0.00    +0.000 C 
BRANCH  51  53
ATOM     53  C   UNL     1     -18.489   3.407   1.554  0.00  0.00    +0.000 C 
ATOM     54  C   UNL     1     -19.942   3.832   1.408  0.00  0.00    +0.000 C 
ENDBRANCH  51  53
ENDBRANCH  50  51
ENDBRANCH  48  50
ENDBRANCH  10  48
BRANCH   8  55
ATOM     55  O   UNL     1     -14.684   1.165  -0.029  0.00  0.00    +0.000 OA
BRANCH  55  57
ATOM     56  O   UNL     1     -14.739  -0.484  -1.616  0.00  0.00    +0.000 OA
ATOM     57  C   UNL     1     -15.296   0.294  -0.859  0.00  0.00    +0.000 C 
BRANCH  57  58
ATOM     58  C   UNL     1     -16.774   0.404  -0.733  0.00  0.00    +0.000 A 
ATOM     59  C   UNL     1     -17.501  -0.305   0.233  0.00  0.00    +0.000 A 
ATOM     60  C   UNL     1     -17.453   1.249  -1.622  0.00  0.00    +0.000 A 
ATOM     61  C   UNL     1     -18.889  -0.172   0.304  0.00  0.00    +0.000 A 
ATOM     62  C   UNL     1     -18.840   1.381  -1.546  0.00  0.00    +0.000 A 
ATOM     63  C   UNL     1     -19.558   0.670  -0.585  0.00  0.00    +0.000 A 
ENDBRANCH  57  58
ENDBRANCH  55  57
ENDBRANCH   8  55
TORSDOF 16
ENDMDL
MODEL 3
REMARK VINA RESULT:      -6.4      2.104      3.056
REMARK  Name = ./IMPHY000002_3D.pdb
REMARK  25 active torsions:
REMARK  status: ('A' for Active; 'I' for Inactive)
REMARK    1  A    between atoms: O_2  and  C_21
REMARK    2  A    between atoms: O_2  and  C_37
REMARK    3  A    between atoms: O_3  and  C_23
REMARK    4  A    between atoms: O_3  and  C_36
REMARK    5  A    between atoms: O_4  and  C_34
REMARK    6  A    between atoms: O_4  and  C_39
REMARK    7  A    between atoms: O_9  and  C_46
REMARK    8  A    between atoms: O_9  and  C_54
REMARK    9  A    between atoms: O_10  and  C_48
REMARK   10  A    between atoms: O_10  and  C_55
REMARK   11  A    between atoms: O_12  and  C_56
REMARK   12  A    between atoms: O_13  and  C_57
REMARK   13  A    between atoms: O_13  and  C_61
REMARK   14  A    between atoms: O_14  and  C_59
REMARK   15  A    between atoms: C_17  and  C_28
REMARK   16  A    between atoms: C_19  and  C_30
REMARK   17  A    between atoms: C_24  and  C_33
REMARK   18  A    between atoms: C_33  and  C_35
REMARK   19  A    between atoms: C_36  and  C_38
REMARK   20  A    between atoms: C_37  and  C_40
REMARK   21  A    between atoms: C_38  and  C_41
REMARK   22  A    between atoms: C_38  and  C_43
REMARK   23  A    between atoms: C_41  and  C_49
REMARK   24  A    between atoms: C_47  and  C_52
REMARK   25  A    between atoms: C_58  and  C_60
REMARK                            x       y       z     vdW  Elec       q    Type
REMARK                         _______ _______ _______ _____ _____    ______ ____
ROOT
ATOM      1  O   UNL     1     -26.049   8.842  15.338  0.00  0.00    +0.000 OA
ATOM      2  C   UNL     1     -26.299  10.242  15.146  0.00  0.00    +0.000 C 
ATOM      3  C   UNL     1     -25.150   9.520  14.453  0.00  0.00    +0.000 C 
ATOM      4  C   UNL     1     -27.598  10.579  14.447  0.00  0.00    +0.000 C 
ATOM      5  C   UNL     1     -25.269   9.158  12.974  0.00  0.00    +0.000 C 
ATOM      6  C   UNL     1     -24.397   7.866  12.649  0.00  0.00    +0.000 C 
ATOM      7  C   UNL     1     -26.104  11.108  16.362  0.00  0.00    +0.000 C 
ATOM      8  C   UNL     1     -27.510  10.423  12.908  0.00  0.00    +0.000 C 
ATOM      9  C   UNL     1     -23.754   9.659  14.994  0.00  0.00    +0.000 C 
ATOM     10  C   UNL     1     -26.746   9.134  12.488  0.00  0.00    +0.000 C 
ATOM     11  C   UNL     1     -27.832  12.045  14.941  0.00  0.00    +0.000 C 
ATOM     12  C   UNL     1     -22.942   8.131  13.173  0.00  0.00    +0.000 C 
ATOM     13  C   UNL     1     -27.344  12.013  16.400  0.00  0.00    +0.000 C 
ATOM     14  C   UNL     1     -22.905   8.436  14.673  0.00  0.00    +0.000 C 
ATOM     15  C   UNL     1     -28.737   9.681  15.012  0.00  0.00    +0.000 C 
ATOM     16  C   UNL     1     -24.284   7.606  11.119  0.00  0.00    +0.000 C 
ATOM     17  C   UNL     1     -25.029   6.609  13.301  0.00  0.00    +0.000 C 
ATOM     18  C   UNL     1     -21.952   7.012  12.823  0.00  0.00    +0.000 C 
ATOM     19  C   UNL     1     -23.266   6.530  10.736  0.00  0.00    +0.000 C 
ATOM     20  C   UNL     1     -21.876   6.791  11.311  0.00  0.00    +0.000 C 
ENDROOT
BRANCH  11  22
ATOM     21  O   UNL     1     -25.816  12.982  13.973  0.00  0.00    +0.000 OA
ATOM     22  C   UNL     1     -27.015  13.124  14.217  0.00  0.00    +0.000 C 
ATOM     23  C   UNL     1     -27.713  14.430  13.932  0.00  0.00    +0.000 C 
ENDBRANCH  11  22
BRANCH  20  24
ATOM     24  O   UNL     1     -21.075   5.647  11.002  0.00  0.00    +0.000 OA
BRANCH  24  26
ATOM     25  O   UNL     1     -18.880   6.461  10.965  0.00  0.00    +0.000 OA
ATOM     26  C   UNL     1     -19.807   5.631  11.652  0.00  0.00    +0.000 C 
ATOM     27  C   UNL     1     -19.303   4.198  11.621  0.00  0.00    +0.000 C 
ATOM     28  C   UNL     1     -17.929   4.077  12.276  0.00  0.00    +0.000 C 
ATOM     29  C   UNL     1     -17.618   6.512  11.631  0.00  0.00    +0.000 C 
ATOM     30  C   UNL     1     -16.943   5.124  11.704  0.00  0.00    +0.000 C 
ATOM     31  C   UNL     1     -16.748   7.512  10.873  0.00  0.00    +0.000 C 
BRANCH  28  32
ATOM     32  O   UNL     1     -17.411   2.758  12.020  0.00  0.00    +0.000 OA
ATOM     33  C   UNL     1     -17.195   1.997  13.201  0.00  0.00    +0.000 C 
ENDBRANCH  28  32
BRANCH  30  34
ATOM     34  O   UNL     1     -15.781   5.291  12.534  0.00  0.00    +0.000 OA
BRANCH  34  36
ATOM     35  O   UNL     1     -14.579   3.565  11.539  0.00  0.00    +0.000 OA
ATOM     36  C   UNL     1     -14.543   4.946  11.905  0.00  0.00    +0.000 C 
ATOM     37  C   UNL     1     -13.420   5.160  12.949  0.00  0.00    +0.000 C 
ATOM     38  C   UNL     1     -12.299   4.113  12.779  0.00  0.00    +0.000 C 
ATOM     39  C   UNL     1     -13.453   3.209  10.718  0.00  0.00    +0.000 C 
ATOM     40  C   UNL     1     -12.122   3.731  11.302  0.00  0.00    +0.000 C 
ATOM     41  C   UNL     1     -13.457   1.687  10.633  0.00  0.00    +0.000 C 
BRANCH  40  42
ATOM     42  O   UNL     1     -11.701   4.883  10.557  0.00  0.00    +0.000 OA
ATOM     43  H   UNL     1     -12.487   5.187  10.063  0.00  0.00    +0.000 HD
ENDBRANCH  40  42
BRANCH  38  44
ATOM     44  O   UNL     1     -11.043   4.630  13.272  0.00  0.00    +0.000 OA
ATOM     45  C   UNL     1     -10.651   4.023  14.501  0.00  0.00    +0.000 C 
ENDBRANCH  38  44
BRANCH  37  46
ATOM     46  O   UNL     1     -12.901   6.502  12.855  0.00  0.00    +0.000 OA
ATOM     47  H   UNL     1     -12.483   6.567  11.976  0.00  0.00    +0.000 HD
ENDBRANCH  37  46
ENDBRANCH  34  36
ENDBRANCH  30  34
ENDBRANCH  24  26
ENDBRANCH  20  24
BRANCH  10  48
ATOM     48  O   UNL     1     -26.748   9.116  11.036  0.00  0.00    +0.000 OA
BRANCH  48  50
ATOM     49  O   UNL     1     -28.232   7.358  10.977  0.00  0.00    +0.000 OA
ATOM     50  C   UNL     1     -27.453   8.123  10.423  0.00  0.00    +0.000 C 
BRANCH  50  51
ATOM     51  C   UNL     1     -27.139   8.118   8.937  0.00  0.00    +0.000 C 
ATOM     52  C   UNL     1     -28.439   8.107   8.133  0.00  0.00    +0.000 C 
BRANCH  51  53
ATOM     53  C   UNL     1     -26.246   9.323   8.614  0.00  0.00    +0.000 C 
ATOM     54  C   UNL     1     -26.172   9.636   7.127  0.00  0.00    +0.000 C 
ENDBRANCH  51  53
ENDBRANCH  50  51
ENDBRANCH  48  50
ENDBRANCH  10  48
BRANCH   8  55
ATOM     55  O   UNL     1     -28.850  10.327  12.349  0.00  0.00    +0.000 OA
BRANCH  55  57
ATOM     56  O   UNL     1     -30.381  12.021  12.505  0.00  0.00    +0.000 OA
ATOM     57  C   UNL     1     -29.458  11.460  11.939  0.00  0.00    +0.000 C 
BRANCH  57  58
ATOM     58  C   UNL     1     -28.846  11.951  10.675  0.00  0.00    +0.000 A 
ATOM     59  C   UNL     1     -27.826  12.912  10.657  0.00  0.00    +0.000 A 
ATOM     60  C   UNL     1     -29.318  11.427   9.464  0.00  0.00    +0.000 A 
ATOM     61  C   UNL     1     -27.291  13.346   9.442  0.00  0.00    +0.000 A 
ATOM     62  C   UNL     1     -28.780  11.861   8.251  0.00  0.00    +0.000 A 
ATOM     63  C   UNL     1     -27.768  12.821   8.241  0.00  0.00    +0.000 A 
ENDBRANCH  57  58
ENDBRANCH  55  57
ENDBRANCH   8  55
TORSDOF 16
ENDMDL
MODEL 4
REMARK VINA RESULT:      -6.3      1.844      3.272
REMARK  Name = ./IMPHY000002_3D.pdb
REMARK  25 active torsions:
REMARK  status: ('A' for Active; 'I' for Inactive)
REMARK    1  A    between atoms: O_2  and  C_21
REMARK    2  A    between atoms: O_2  and  C_37
REMARK    3  A    between atoms: O_3  and  C_23
REMARK    4  A    between atoms: O_3  and  C_36
REMARK    5  A    between atoms: O_4  and  C_34
REMARK    6  A    between atoms: O_4  and  C_39
REMARK    7  A    between atoms: O_9  and  C_46
REMARK    8  A    between atoms: O_9  and  C_54
REMARK    9  A    between atoms: O_10  and  C_48
REMARK   10  A    between atoms: O_10  and  C_55
REMARK   11  A    between atoms: O_12  and  C_56
REMARK   12  A    between atoms: O_13  and  C_57
REMARK   13  A    between atoms: O_13  and  C_61
REMARK   14  A    between atoms: O_14  and  C_59
REMARK   15  A    between atoms: C_17  and  C_28
REMARK   16  A    between atoms: C_19  and  C_30
REMARK   17  A    between atoms: C_24  and  C_33
REMARK   18  A    between atoms: C_33  and  C_35
REMARK   19  A    between atoms: C_36  and  C_38
REMARK   20  A    between atoms: C_37  and  C_40
REMARK   21  A    between atoms: C_38  and  C_41
REMARK   22  A    between atoms: C_38  and  C_43
REMARK   23  A    between atoms: C_41  and  C_49
REMARK   24  A    between atoms: C_47  and  C_52
REMARK   25  A    between atoms: C_58  and  C_60
REMARK                            x       y       z     vdW  Elec       q    Type
REMARK                         _______ _______ _______ _____ _____    ______ ____
ROOT
ATOM      1  O   UNL     1     -25.943   8.503  15.312  0.00  0.00    +0.000 OA
ATOM      2  C   UNL     1     -26.198   9.902  15.121  0.00  0.00    +0.000 C 
ATOM      3  C   UNL     1     -25.023   9.194  14.458  0.00  0.00    +0.000 C 
ATOM      4  C   UNL     1     -27.479  10.234  14.387  0.00  0.00    +0.000 C 
ATOM      5  C   UNL     1     -25.096   8.842  12.974  0.00  0.00    +0.000 C 
ATOM      6  C   UNL     1     -24.205   7.558  12.666  0.00  0.00    +0.000 C 
ATOM      7  C   UNL     1     -26.045  10.762  16.349  0.00  0.00    +0.000 C 
ATOM      8  C   UNL     1     -27.344  10.090  12.850  0.00  0.00    +0.000 C 
ATOM      9  C   UNL     1     -23.645   9.340  15.041  0.00  0.00    +0.000 C 
ATOM     10  C   UNL     1     -26.558   8.809  12.444  0.00  0.00    +0.000 C 
ATOM     11  C   UNL     1     -27.739  11.695  14.883  0.00  0.00    +0.000 C 
ATOM     12  C   UNL     1     -22.768   7.831  13.234  0.00  0.00    +0.000 C 
ATOM     13  C   UNL     1     -27.294  11.656  16.356  0.00  0.00    +0.000 C 
ATOM     14  C   UNL     1     -22.777   8.126  14.737  0.00  0.00    +0.000 C 
ATOM     15  C   UNL     1     -28.627   9.323  14.911  0.00  0.00    +0.000 C 
ATOM     16  C   UNL     1     -24.044   7.310  11.138  0.00  0.00    +0.000 C 
ATOM     17  C   UNL     1     -24.845   6.292  13.290  0.00  0.00    +0.000 C 
ATOM     18  C   UNL     1     -21.758   6.722  12.907  0.00  0.00    +0.000 C 
ATOM     19  C   UNL     1     -23.007   6.245  10.778  0.00  0.00    +0.000 C 
ATOM     20  C   UNL     1     -21.637   6.512  11.396  0.00  0.00    +0.000 C 
ENDROOT
BRANCH  11  22
ATOM     21  O   UNL     1     -25.736  12.603  13.861  0.00  0.00    +0.000 OA
ATOM     22  C   UNL     1     -26.909  12.785  14.191  0.00  0.00    +0.000 C 
ATOM     23  C   UNL     1     -27.551  14.142  14.048  0.00  0.00    +0.000 C 
ENDBRANCH  11  22
BRANCH  20  24
ATOM     24  O   UNL     1     -20.818   5.377  11.103  0.00  0.00    +0.000 OA
BRANCH  24  26
ATOM     25  O   UNL     1     -18.933   4.505  10.022  0.00  0.00    +0.000 OA
ATOM     26  C   UNL     1     -19.613   5.691  10.410  0.00  0.00    +0.000 C 
ATOM     27  C   UNL     1     -18.732   6.473  11.370  0.00  0.00    +0.000 C 
ATOM     28  C   UNL     1     -17.395   6.839  10.727  0.00  0.00    +0.000 C 
ATOM     29  C   UNL     1     -17.752   4.790   9.272  0.00  0.00    +0.000 C 
ATOM     30  C   UNL     1     -16.723   5.597  10.092  0.00  0.00    +0.000 C 
ATOM     31  C   UNL     1     -17.173   3.453   8.816  0.00  0.00    +0.000 C 
BRANCH  28  32
ATOM     32  O   UNL     1     -16.527   7.373  11.743  0.00  0.00    +0.000 OA
ATOM     33  C   UNL     1     -16.070   8.690  11.460  0.00  0.00    +0.000 C 
ENDBRANCH  28  32
BRANCH  30  34
ATOM     34  O   UNL     1     -15.674   5.954   9.175  0.00  0.00    +0.000 OA
BRANCH  34  36
ATOM     35  O   UNL     1     -14.030   4.409   8.610  0.00  0.00    +0.000 OA
ATOM     36  C   UNL     1     -14.381   5.452   9.521  0.00  0.00    +0.000 C 
ATOM     37  C   UNL     1     -14.481   4.859  10.948  0.00  0.00    +0.000 C 
ATOM     38  C   UNL     1     -13.567   3.625  11.100  0.00  0.00    +0.000 C 
ATOM     39  C   UNL     1     -12.659   4.006   8.771  0.00  0.00    +0.000 C 
ATOM     40  C   UNL     1     -12.294   3.775  10.253  0.00  0.00    +0.000 C 
ATOM     41  C   UNL     1     -12.494   2.727   7.957  0.00  0.00    +0.000 C 
BRANCH  40  42
ATOM     42  O   UNL     1     -11.530   4.892  10.731  0.00  0.00    +0.000 OA
ATOM     43  H   UNL     1     -12.156   5.639  10.793  0.00  0.00    +0.000 HD
ENDBRANCH  40  42
BRANCH  38  44
ATOM     44  O   UNL     1     -13.180   3.448  12.481  0.00  0.00    +0.000 OA
ATOM     45  C   UNL     1     -12.649   2.150  12.735  0.00  0.00    +0.000 C 
ENDBRANCH  38  44
BRANCH  37  46
ATOM     46  O   UNL     1     -14.167   5.867  11.929  0.00  0.00    +0.000 OA
ATOM     47  H   UNL     1     -13.325   5.593  12.337  0.00  0.00    +0.000 HD
ENDBRANCH  37  46
ENDBRANCH  34  36
ENDBRANCH  30  34
ENDBRANCH  24  26
ENDBRANCH  20  24
BRANCH  10  48
ATOM     48  O   UNL     1     -26.517   8.801  10.992  0.00  0.00    +0.000 OA
BRANCH  48  50
ATOM     49  O   UNL     1     -27.827   6.912  10.899  0.00  0.00    +0.000 OA
ATOM     50  C   UNL     1     -27.199   7.809  10.352  0.00  0.00    +0.000 C 
BRANCH  50  51
ATOM     51  C   UNL     1     -27.076   7.994   8.850  0.00  0.00    +0.000 C 
ATOM     52  C   UNL     1     -28.467   8.015   8.216  0.00  0.00    +0.000 C 
BRANCH  51  53
ATOM     53  C   UNL     1     -26.272   9.271   8.570  0.00  0.00    +0.000 C 
ATOM     54  C   UNL     1     -26.110   9.567   7.088  0.00  0.00    +0.000 C 
ENDBRANCH  51  53
ENDBRANCH  50  51
ENDBRANCH  48  50
ENDBRANCH  10  48
BRANCH   8  55
ATOM     55  O   UNL     1     -28.666   9.986  12.251  0.00  0.00    +0.000 OA
BRANCH  55  57
ATOM     56  O   UNL     1     -30.186  11.663  12.591  0.00  0.00    +0.000 OA
ATOM     57  C   UNL     1     -29.315  11.125  11.928  0.00  0.00    +0.000 C 
BRANCH  57  58
ATOM     58  C   UNL     1     -28.824  11.654  10.628  0.00  0.00    +0.000 A 
ATOM     59  C   UNL     1     -29.380  11.269   9.400  0.00  0.00    +0.000 A 
ATOM     60  C   UNL     1     -27.762  12.570  10.645  0.00  0.00    +0.000 A 
ATOM     61  C   UNL     1     -28.877  11.790   8.207  0.00  0.00    +0.000 A 
ATOM     62  C   UNL     1     -27.263  13.090   9.450  0.00  0.00    +0.000 A 
ATOM     63  C   UNL     1     -27.819  12.700   8.232  0.00  0.00    +0.000 A 
ENDBRANCH  57  58
ENDBRANCH  55  57
ENDBRANCH   8  55
TORSDOF 16
ENDMDL
MODEL 5
REMARK VINA RESULT:      -6.3      2.382      4.956
REMARK  Name = ./IMPHY000002_3D.pdb
REMARK  25 active torsions:
REMARK  status: ('A' for Active; 'I' for Inactive)
REMARK    1  A    between atoms: O_2  and  C_21
REMARK    2  A    between atoms: O_2  and  C_37
REMARK    3  A    between atoms: O_3  and  C_23
REMARK    4  A    between atoms: O_3  and  C_36
REMARK    5  A    between atoms: O_4  and  C_34
REMARK    6  A    between atoms: O_4  and  C_39
REMARK    7  A    between atoms: O_9  and  C_46
REMARK    8  A    between atoms: O_9  and  C_54
REMARK    9  A    between atoms: O_10  and  C_48
REMARK   10  A    between atoms: O_10  and  C_55
REMARK   11  A    between atoms: O_12  and  C_56
REMARK   12  A    between atoms: O_13  and  C_57
REMARK   13  A    between atoms: O_13  and  C_61
REMARK   14  A    between atoms: O_14  and  C_59
REMARK   15  A    between atoms: C_17  and  C_28
REMARK   16  A    between atoms: C_19  and  C_30
REMARK   17  A    between atoms: C_24  and  C_33
REMARK   18  A    between atoms: C_33  and  C_35
REMARK   19  A    between atoms: C_36  and  C_38
REMARK   20  A    between atoms: C_37  and  C_40
REMARK   21  A    between atoms: C_38  and  C_41
REMARK   22  A    between atoms: C_38  and  C_43
REMARK   23  A    between atoms: C_41  and  C_49
REMARK   24  A    between atoms: C_47  and  C_52
REMARK   25  A    between atoms: C_58  and  C_60
REMARK                            x       y       z     vdW  Elec       q    Type
REMARK                         _______ _______ _______ _____ _____    ______ ____
ROOT
ATOM      1  O   UNL     1     -24.172   6.651   9.686  0.00  0.00    +0.000 OA
ATOM      2  C   UNL     1     -25.604   6.734   9.709  0.00  0.00    +0.000 C 
ATOM      3  C   UNL     1     -24.807   6.136  10.862  0.00  0.00    +0.000 C 
ATOM      4  C   UNL     1     -26.172   8.136   9.743  0.00  0.00    +0.000 C 
ATOM      5  C   UNL     1     -24.607   6.946  12.140  0.00  0.00    +0.000 C 
ATOM      6  C   UNL     1     -23.248   6.523  12.856  0.00  0.00    +0.000 C 
ATOM      7  C   UNL     1     -26.318   5.891   8.686  0.00  0.00    +0.000 C 
ATOM      8  C   UNL     1     -26.153   8.757  11.162  0.00  0.00    +0.000 C 
ATOM      9  C   UNL     1     -24.712   4.642  10.998  0.00  0.00    +0.000 C 
ATOM     10  C   UNL     1     -24.821   8.470  11.914  0.00  0.00    +0.000 C 
ATOM     11  C   UNL     1     -27.603   7.894   9.158  0.00  0.00    +0.000 C 
ATOM     12  C   UNL     1     -23.270   4.964  13.031  0.00  0.00    +0.000 C 
ATOM     13  C   UNL     1     -27.369   6.828   8.073  0.00  0.00    +0.000 C 
ATOM     14  C   UNL     1     -23.425   4.225  11.698  0.00  0.00    +0.000 C 
ATOM     15  C   UNL     1     -25.381   9.040   8.753  0.00  0.00    +0.000 C 
ATOM     16  C   UNL     1     -23.122   7.134  14.281  0.00  0.00    +0.000 C 
ATOM     17  C   UNL     1     -22.028   6.996  12.024  0.00  0.00    +0.000 C 
ATOM     18  C   UNL     1     -22.071   4.419  13.817  0.00  0.00    +0.000 C 
ATOM     19  C   UNL     1     -21.964   6.573  15.108  0.00  0.00    +0.000 C 
ATOM     20  C   UNL     1     -21.986   5.050  15.209  0.00  0.00    +0.000 C 
ENDROOT
BRANCH  11  22
ATOM     21  O   UNL     1     -28.305   6.553  11.052  0.00  0.00    +0.000 OA
ATOM     22  C   UNL     1     -28.630   7.317  10.141  0.00  0.00    +0.000 C 
ATOM     23  C   UNL     1     -30.081   7.619   9.866  0.00  0.00    +0.000 C 
ENDBRANCH  11  22
BRANCH  20  24
ATOM     24  O   UNL     1     -20.782   4.658  15.874  0.00  0.00    +0.000 OA
BRANCH  24  26
ATOM     25  O   UNL     1     -18.732   3.873  15.060  0.00  0.00    +0.000 OA
ATOM     26  C   UNL     1     -19.590   5.000  15.171  0.00  0.00    +0.000 C 
ATOM     27  C   UNL     1     -18.886   6.079  15.977  0.00  0.00    +0.000 C 
ATOM     28  C   UNL     1     -17.575   6.500  15.317  0.00  0.00    +0.000 C 
ATOM     29  C   UNL     1     -17.557   4.172  14.306  0.00  0.00    +0.000 C 
ATOM     30  C   UNL     1     -16.701   5.269  14.976  0.00  0.00    +0.000 C 
ATOM     31  C   UNL     1     -16.773   2.870  14.157  0.00  0.00    +0.000 C 
BRANCH  28  32
ATOM     32  O   UNL     1     -16.852   7.349  16.228  0.00  0.00    +0.000 OA
ATOM     33  C   UNL     1     -17.606   8.470  16.672  0.00  0.00    +0.000 C 
ENDBRANCH  28  32
BRANCH  30  34
ATOM     34  O   UNL     1     -15.656   5.584  14.039  0.00  0.00    +0.000 OA
BRANCH  34  36
ATOM     35  O   UNL     1     -15.633   5.335  11.727  0.00  0.00    +0.000 OA
ATOM     36  C   UNL     1     -16.108   6.145  12.804  0.00  0.00    +0.000 C 
ATOM     37  C   UNL     1     -15.486   7.557  12.682  0.00  0.00    +0.000 C 
ATOM     38  C   UNL     1     -15.157   7.892  11.212  0.00  0.00    +0.000 C 
ATOM     39  C   UNL     1     -16.226   5.722  10.475  0.00  0.00    +0.000 C 
ATOM     40  C   UNL     1     -16.177   7.250  10.260  0.00  0.00    +0.000 C 
ATOM     41  C   UNL     1     -15.445   4.988   9.391  0.00  0.00    +0.000 C 
BRANCH  40  42
ATOM     42  O   UNL     1     -17.477   7.804  10.507  0.00  0.00    +0.000 OA
ATOM     43  H   UNL     1     -17.563   7.865  11.478  0.00  0.00    +0.000 HD
ENDBRANCH  40  42
BRANCH  38  44
ATOM     44  O   UNL     1     -15.170   9.322  11.003  0.00  0.00    +0.000 OA
ATOM     45  C   UNL     1     -13.866   9.892  11.066  0.00  0.00    +0.000 C 
ENDBRANCH  38  44
BRANCH  37  46
ATOM     46  O   UNL     1     -16.368   8.542  13.258  0.00  0.00    +0.000 OA
ATOM     47  H   UNL     1     -16.350   9.306  12.653  0.00  0.00    +0.000 HD
ENDBRANCH  37  46
ENDBRANCH  34  36
ENDBRANCH  30  34
ENDBRANCH  24  26
ENDBRANCH  20  24
BRANCH  10  48
ATOM     48  O   UNL     1     -24.942   9.111  13.212  0.00  0.00    +0.000 OA
BRANCH  48  50
ATOM     49  O   UNL     1     -23.168  10.514  12.790  0.00  0.00    +0.000 OA
ATOM     50  C   UNL     1     -24.143  10.189  13.455  0.00  0.00    +0.000 C 
BRANCH  50  51
ATOM     51  C   UNL     1     -24.657  10.941  14.670  0.00  0.00    +0.000 C 
ATOM     52  C   UNL     1     -23.613  11.957  15.130  0.00  0.00    +0.000 C 
BRANCH  51  53
ATOM     53  C   UNL     1     -26.006  11.585  14.321  0.00  0.00    +0.000 C 
ATOM     54  C   UNL     1     -26.167  12.988  14.887  0.00  0.00    +0.000 C 
ENDBRANCH  51  53
ENDBRANCH  50  51
ENDBRANCH  48  50
ENDBRANCH  10  48
BRANCH   8  55
ATOM     55  O   UNL     1     -26.285  10.203  11.065  0.00  0.00    +0.000 OA
BRANCH  55  57
ATOM     56  O   UNL     1     -28.493  10.226  11.670  0.00  0.00    +0.000 OA
ATOM     57  C   UNL     1     -27.520  10.741  11.145  0.00  0.00    +0.000 C 
BRANCH  57  58
ATOM     58  C   UNL     1     -27.549  12.079  10.493  0.00  0.00    +0.000 A 
ATOM     59  C   UNL     1     -27.652  13.270  11.225  0.00  0.00    +0.000 A 
ATOM     60  C   UNL     1     -27.470  12.135   9.095  0.00  0.00    +0.000 A 
ATOM     61  C   UNL     1     -27.682  14.499  10.564  0.00  0.00    +0.000 A 
ATOM     62  C   UNL     1     -27.499  13.366   8.437  0.00  0.00    +0.000 A 
ATOM     63  C   UNL     1     -27.606  14.547   9.172  0.00  0.00    +0.000 A 
ENDBRANCH  57  58
ENDBRANCH  55  57
ENDBRANCH   8  55
TORSDOF 16
ENDMDL
MODEL 6
REMARK VINA RESULT:      -6.3      9.615     14.070
REMARK  Name = ./IMPHY000002_3D.pdb
REMARK  25 active torsions:
REMARK  status: ('A' for Active; 'I' for Inactive)
REMARK    1  A    between atoms: O_2  and  C_21
REMARK    2  A    between atoms: O_2  and  C_37
REMARK    3  A    between atoms: O_3  and  C_23
REMARK    4  A    between atoms: O_3  and  C_36
REMARK    5  A    between atoms: O_4  and  C_34
REMARK    6  A    between atoms: O_4  and  C_39
REMARK    7  A    between atoms: O_9  and  C_46
REMARK    8  A    between atoms: O_9  and  C_54
REMARK    9  A    between atoms: O_10  and  C_48
REMARK   10  A    between atoms: O_10  and  C_55
REMARK   11  A    between atoms: O_12  and  C_56
REMARK   12  A    between atoms: O_13  and  C_57
REMARK   13  A    between atoms: O_13  and  C_61
REMARK   14  A    between atoms: O_14  and  C_59
REMARK   15  A    between atoms: C_17  and  C_28
REMARK   16  A    between atoms: C_19  and  C_30
REMARK   17  A    between atoms: C_24  and  C_33
REMARK   18  A    between atoms: C_33  and  C_35
REMARK   19  A    between atoms: C_36  and  C_38
REMARK   20  A    between atoms: C_37  and  C_40
REMARK   21  A    between atoms: C_38  and  C_41
REMARK   22  A    between atoms: C_38  and  C_43
REMARK   23  A    between atoms: C_41  and  C_49
REMARK   24  A    between atoms: C_47  and  C_52
REMARK   25  A    between atoms: C_58  and  C_60
REMARK                            x       y       z     vdW  Elec       q    Type
REMARK                         _______ _______ _______ _____ _____    ______ ____
ROOT
ATOM      1  O   UNL     1     -15.451   1.770  -0.359  0.00  0.00    +0.000 OA
ATOM      2  C   UNL     1     -15.954   0.427  -0.362  0.00  0.00    +0.000 C 
ATOM      3  C   UNL     1     -15.447   1.101   0.907  0.00  0.00    +0.000 C 
ATOM      4  C   UNL     1     -17.426   0.286  -0.685  0.00  0.00    +0.000 C 
ATOM      5  C   UNL     1     -16.447   1.617   1.939  0.00  0.00    +0.000 C 
ATOM      6  C   UNL     1     -15.830   2.846   2.741  0.00  0.00    +0.000 C 
ATOM      7  C   UNL     1     -15.136  -0.571  -1.139  0.00  0.00    +0.000 C 
ATOM      8  C   UNL     1     -18.339   0.584   0.531  0.00  0.00    +0.000 C 
ATOM      9  C   UNL     1     -14.070   0.777   1.418  0.00  0.00    +0.000 C 
ATOM     10  C   UNL     1     -17.864   1.829   1.334  0.00  0.00    +0.000 C 
ATOM     11  C   UNL     1     -17.481  -1.193  -1.193  0.00  0.00    +0.000 C 
ATOM     12  C   UNL     1     -14.438   2.393   3.306  0.00  0.00    +0.000 C 
ATOM     13  C   UNL     1     -16.163  -1.352  -1.972  0.00  0.00    +0.000 C 
ATOM     14  C   UNL     1     -13.476   1.939   2.203  0.00  0.00    +0.000 C 
ATOM     15  C   UNL     1     -17.788   1.228  -1.870  0.00  0.00    +0.000 C 
ATOM     16  C   UNL     1     -16.704   3.244   3.965  0.00  0.00    +0.000 C 
ATOM     17  C   UNL     1     -15.707   4.087   1.820  0.00  0.00    +0.000 C 
ATOM     18  C   UNL     1     -13.771   3.442   4.207  0.00  0.00    +0.000 C 
ATOM     19  C   UNL     1     -16.045   4.251   4.910  0.00  0.00    +0.000 C 
ATOM     20  C   UNL     1     -14.668   3.803   5.394  0.00  0.00    +0.000 C 
ENDROOT
BRANCH  11  22
ATOM     21  O   UNL     1     -16.481  -2.539   0.559  0.00  0.00    +0.000 OA
ATOM     22  C   UNL     1     -17.488  -2.268  -0.097  0.00  0.00    +0.000 C 
ATOM     23  C   UNL     1     -18.751  -3.077   0.054  0.00  0.00    +0.000 C 
ENDBRANCH  11  22
BRANCH  20  24
ATOM     24  O   UNL     1     -14.113   4.890   6.139  0.00  0.00    +0.000 OA
BRANCH  24  26
ATOM     25  O   UNL     1     -15.424   4.178   7.944  0.00  0.00    +0.000 OA
ATOM     26  C   UNL     1     -14.168   4.715   7.553  0.00  0.00    +0.000 C 
ATOM     27  C   UNL     1     -14.001   6.088   8.183  0.00  0.00    +0.000 C 
ATOM     28  C   UNL     1     -14.071   6.013   9.707  0.00  0.00    +0.000 C 
ATOM     29  C   UNL     1     -15.484   3.935   9.349  0.00  0.00    +0.000 C 
ATOM     30  C   UNL     1     -15.325   5.234  10.170  0.00  0.00    +0.000 C 
ATOM     31  C   UNL     1     -16.823   3.259   9.634  0.00  0.00    +0.000 C 
BRANCH  28  32
ATOM     32  O   UNL     1     -14.132   7.352  10.231  0.00  0.00    +0.000 OA
ATOM     33  C   UNL     1     -15.460   7.816  10.442  0.00  0.00    +0.000 C 
ENDBRANCH  28  32
BRANCH  30  34
ATOM     34  O   UNL     1     -15.236   4.825  11.546  0.00  0.00    +0.000 OA
BRANCH  34  36
ATOM     35  O   UNL     1     -13.815   3.163  12.337  0.00  0.00    +0.000 OA
ATOM     36  C   UNL     1     -13.910   4.549  12.004  0.00  0.00    +0.000 C 
ATOM     37  C   UNL     1     -13.677   5.390  13.283  0.00  0.00    +0.000 C 
ATOM     38  C   UNL     1     -12.783   4.634  14.288  0.00  0.00    +0.000 C 
ATOM     39  C   UNL     1     -12.455   2.777  12.603  0.00  0.00    +0.000 C 
ATOM     40  C   UNL     1     -11.749   3.764  13.558  0.00  0.00    +0.000 C 
ATOM     41  C   UNL     1     -12.522   1.379  13.207  0.00  0.00    +0.000 C 
BRANCH  40  42
ATOM     42  O   UNL     1     -10.866   4.604  12.801  0.00  0.00    +0.000 OA
ATOM     43  H   UNL     1     -10.557   5.295  13.418  0.00  0.00    +0.000 HD
ENDBRANCH  40  42
BRANCH  38  44
ATOM     44  O   UNL     1     -12.080   5.564  15.140  0.00  0.00    +0.000 OA
ATOM     45  C   UNL     1     -12.734   5.756  16.392  0.00  0.00    +0.000 C 
ENDBRANCH  38  44
BRANCH  37  46
ATOM     46  O   UNL     1     -13.112   6.672  12.940  0.00  0.00    +0.000 OA
ATOM     47  H   UNL     1     -13.848   7.310  12.985  0.00  0.00    +0.000 HD
ENDBRANCH  37  46
ENDBRANCH  34  36
ENDBRANCH  30  34
ENDBRANCH  24  26
ENDBRANCH  20  24
BRANCH  10  48
ATOM     48  O   UNL     1     -18.807   1.991   2.427  0.00  0.00    +0.000 OA
BRANCH  48  50
ATOM     49  O   UNL     1     -19.698   3.882   1.467  0.00  0.00    +0.000 OA
ATOM     50  C   UNL     1     -19.668   3.046   2.360  0.00  0.00    +0.000 C 
BRANCH  50  51
ATOM     51  C   UNL     1     -20.602   3.018   3.557  0.00  0.00    +0.000 C 
ATOM     52  C   UNL     1     -22.045   3.208   3.093  0.00  0.00    +0.000 C 
BRANCH  51  53
ATOM     53  C   UNL     1     -20.387   1.706   4.324  0.00  0.00    +0.000 C 
ATOM     54  C   UNL     1     -20.080   1.915   5.799  0.00  0.00    +0.000 C 
ENDBRANCH  51  53
ENDBRANCH  50  51
ENDBRANCH  48  50
ENDBRANCH  10  48
BRANCH   8  55
ATOM     55  O   UNL     1     -19.691   0.862   0.071  0.00  0.00    +0.000 OA
BRANCH  55  57
ATOM     56  O   UNL     1     -20.793  -0.574   1.471  0.00  0.00    +0.000 OA
ATOM     57  C   UNL     1     -20.672  -0.004   0.399  0.00  0.00    +0.000 C 
BRANCH  57  58
ATOM     58  C   UNL     1     -21.613  -0.181  -0.739  0.00  0.00    +0.000 A 
ATOM     59  C   UNL     1     -21.174  -0.334  -2.061  0.00  0.00    +0.000 A 
ATOM     60  C   UNL     1     -22.988  -0.192  -0.466  0.00  0.00    +0.000 A 
ATOM     61  C   UNL     1     -22.099  -0.490  -3.095  0.00  0.00    +0.000 A 
ATOM     62  C   UNL     1     -23.910  -0.350  -1.501  0.00  0.00    +0.000 A 
ATOM     63  C   UNL     1     -23.466  -0.498  -2.815  0.00  0.00    +0.000 A 
ENDBRANCH  57  58
ENDBRANCH  55  57
ENDBRANCH   8  55
TORSDOF 16
ENDMDL
MODEL 7
REMARK VINA RESULT:      -6.3      7.511     13.790
REMARK  Name = ./IMPHY000002_3D.pdb
REMARK  25 active torsions:
REMARK  status: ('A' for Active; 'I' for Inactive)
REMARK    1  A    between atoms: O_2  and  C_21
REMARK    2  A    between atoms: O_2  and  C_37
REMARK    3  A    between atoms: O_3  and  C_23
REMARK    4  A    between atoms: O_3  and  C_36
REMARK    5  A    between atoms: O_4  and  C_34
REMARK    6  A    between atoms: O_4  and  C_39
REMARK    7  A    between atoms: O_9  and  C_46
REMARK    8  A    between atoms: O_9  and  C_54
REMARK    9  A    between atoms: O_10  and  C_48
REMARK   10  A    between atoms: O_10  and  C_55
REMARK   11  A    between atoms: O_12  and  C_56
REMARK   12  A    between atoms: O_13  and  C_57
REMARK   13  A    between atoms: O_13  and  C_61
REMARK   14  A    between atoms: O_14  and  C_59
REMARK   15  A    between atoms: C_17  and  C_28
REMARK   16  A    between atoms: C_19  and  C_30
REMARK   17  A    between atoms: C_24  and  C_33
REMARK   18  A    between atoms: C_33  and  C_35
REMARK   19  A    between atoms: C_36  and  C_38
REMARK   20  A    between atoms: C_37  and  C_40
REMARK   21  A    between atoms: C_38  and  C_41
REMARK   22  A    between atoms: C_38  and  C_43
REMARK   23  A    between atoms: C_41  and  C_49
REMARK   24  A    between atoms: C_47  and  C_52
REMARK   25  A    between atoms: C_58  and  C_60
REMARK                            x       y       z     vdW  Elec       q    Type
REMARK                         _______ _______ _______ _____ _____    ______ ____
ROOT
ATOM      1  O   UNL     1     -18.823   3.505   4.144  0.00  0.00    +0.000 OA
ATOM      2  C   UNL     1     -18.783   3.897   2.765  0.00  0.00    +0.000 C 
ATOM      3  C   UNL     1     -17.725   4.344   3.766  0.00  0.00    +0.000 C 
ATOM      4  C   UNL     1     -18.556   2.773   1.777  0.00  0.00    +0.000 C 
ATOM      5  C   UNL     1     -16.350   3.682   3.757  0.00  0.00    +0.000 C 
ATOM      6  C   UNL     1     -15.705   3.726   5.212  0.00  0.00    +0.000 C 
ATOM      7  C   UNL     1     -19.908   4.790   2.311  0.00  0.00    +0.000 C 
ATOM      8  C   UNL     1     -17.066   2.365   1.664  0.00  0.00    +0.000 C 
ATOM      9  C   UNL     1     -17.793   5.730   4.345  0.00  0.00    +0.000 C 
ATOM     10  C   UNL     1     -16.366   2.295   3.052  0.00  0.00    +0.000 C 
ATOM     11  C   UNL     1     -19.162   3.392   0.474  0.00  0.00    +0.000 C 
ATOM     12  C   UNL     1     -15.742   5.217   5.702  0.00  0.00    +0.000 C 
ATOM     13  C   UNL     1     -20.383   4.177   0.986  0.00  0.00    +0.000 C 
ATOM     14  C   UNL     1     -17.162   5.790   5.729  0.00  0.00    +0.000 C 
ATOM     15  C   UNL     1     -19.418   1.543   2.186  0.00  0.00    +0.000 C 
ATOM     16  C   UNL     1     -14.210   3.294   5.203  0.00  0.00    +0.000 C 
ATOM     17  C   UNL     1     -16.469   2.780   6.173  0.00  0.00    +0.000 C 
ATOM     18  C   UNL     1     -15.043   5.436   7.050  0.00  0.00    +0.000 C 
ATOM     19  C   UNL     1     -13.472   3.547   6.519  0.00  0.00    +0.000 C 
ATOM     20  C   UNL     1     -13.579   4.994   6.994  0.00  0.00    +0.000 C 
ENDROOT
BRANCH  11  22
ATOM     21  O   UNL     1     -18.123   5.554   0.121  0.00  0.00    +0.000 OA
ATOM     22  C   UNL     1     -18.261   4.392  -0.263  0.00  0.00    +0.000 C 
ATOM     23  C   UNL     1     -17.651   3.929  -1.562  0.00  0.00    +0.000 C 
ENDBRANCH  11  22
BRANCH  20  24
ATOM     24  O   UNL     1     -12.978   5.053   8.291  0.00  0.00    +0.000 OA
BRANCH  24  26
ATOM     25  O   UNL     1     -13.673   6.889   9.568  0.00  0.00    +0.000 OA
ATOM     26  C   UNL     1     -13.857   5.501   9.320  0.00  0.00    +0.000 C 
ATOM     27  C   UNL     1     -13.508   4.725  10.579  0.00  0.00    +0.000 C 
ATOM     28  C   UNL     1     -14.383   5.152  11.756  0.00  0.00    +0.000 C 
ATOM     29  C   UNL     1     -14.584   7.377  10.552  0.00  0.00    +0.000 C 
ATOM     30  C   UNL     1     -14.384   6.691  11.921  0.00  0.00    +0.000 C 
ATOM     31  C   UNL     1     -14.374   8.887  10.652  0.00  0.00    +0.000 C 
BRANCH  28  32
ATOM     32  O   UNL     1     -13.863   4.553  12.957  0.00  0.00    +0.000 OA
ATOM     33  C   UNL     1     -12.456   4.352  12.924  0.00  0.00    +0.000 C 
ENDBRANCH  28  32
BRANCH  30  34
ATOM     34  O   UNL     1     -15.461   7.149  12.757  0.00  0.00    +0.000 OA
BRANCH  34  36
ATOM     35  O   UNL     1     -17.650   6.673  12.133  0.00  0.00    +0.000 OA
ATOM     36  C   UNL     1     -16.538   6.221  12.908  0.00  0.00    +0.000 C 
ATOM     37  C   UNL     1     -16.938   6.216  14.404  0.00  0.00    +0.000 C 
ATOM     38  C   UNL     1     -18.458   6.009  14.570  0.00  0.00    +0.000 C 
ATOM     39  C   UNL     1     -18.689   5.681  12.073  0.00  0.00    +0.000 C 
ATOM     40  C   UNL     1     -19.013   5.097  13.466  0.00  0.00    +0.000 C 
ATOM     41  C   UNL     1     -19.905   6.375  11.471  0.00  0.00    +0.000 C 
BRANCH  40  42
ATOM     42  O   UNL     1     -18.424   3.793  13.580  0.00  0.00    +0.000 OA
ATOM     43  H   UNL     1     -19.140   3.201  13.879  0.00  0.00    +0.000 HD
ENDBRANCH  40  42
BRANCH  38  44
ATOM     44  O   UNL     1     -18.751   5.408  15.851  0.00  0.00    +0.000 OA
ATOM     45  C   UNL     1     -19.374   6.322  16.750  0.00  0.00    +0.000 C 
ENDBRANCH  38  44
BRANCH  37  46
ATOM     46  O   UNL     1     -16.192   5.208  15.115  0.00  0.00    +0.000 OA
ATOM     47  H   UNL     1     -16.682   4.373  14.991  0.00  0.00    +0.000 HD
ENDBRANCH  37  46
ENDBRANCH  34  36
ENDBRANCH  30  34
ENDBRANCH  24  26
ENDBRANCH  20  24
BRANCH  10  48
ATOM     48  O   UNL     1     -14.992   1.898   2.794  0.00  0.00    +0.000 OA
BRANCH  48  50
ATOM     49  O   UNL     1     -15.305  -0.126   3.842  0.00  0.00    +0.000 OA
ATOM     50  C   UNL     1     -14.617   0.649   3.191  0.00  0.00    +0.000 C 
BRANCH  50  51
ATOM     51  C   UNL     1     -13.216   0.354   2.685  0.00  0.00    +0.000 C 
ATOM     52  C   UNL     1     -13.284  -0.614   1.505  0.00  0.00    +0.000 C 
BRANCH  51  53
ATOM     53  C   UNL     1     -12.525   1.679   2.335  0.00  0.00    +0.000 C 
ATOM     54  C   UNL     1     -11.966   1.709   0.920  0.00  0.00    +0.000 C 
ENDBRANCH  51  53
ENDBRANCH  50  51
ENDBRANCH  48  50
ENDBRANCH  10  48
BRANCH   8  55
ATOM     55  O   UNL     1     -16.965   1.041   1.068  0.00  0.00    +0.000 OA
BRANCH  55  57
ATOM     56  O   UNL     1     -15.313   1.445  -0.464  0.00  0.00    +0.000 OA
ATOM     57  C   UNL     1     -16.365   0.922  -0.134  0.00  0.00    +0.000 C 
BRANCH  57  58
ATOM     58  C   UNL     1     -17.168   0.051  -1.034  0.00  0.00    +0.000 A 
ATOM     59  C   UNL     1     -18.567   0.113  -1.089  0.00  0.00    +0.000 A 
ATOM     60  C   UNL     1     -16.488  -0.864  -1.849  0.00  0.00    +0.000 A 
ATOM     61  C   UNL     1     -19.275  -0.733  -1.945  0.00  0.00    +0.000 A 
ATOM     62  C   UNL     1     -17.198  -1.707  -2.706  0.00  0.00    +0.000 A 
ATOM     63  C   UNL     1     -18.591  -1.642  -2.752  0.00  0.00    +0.000 A 
ENDBRANCH  57  58
ENDBRANCH  55  57
ENDBRANCH   8  55
TORSDOF 16
ENDMDL
MODEL 8
REMARK VINA RESULT:      -6.3      8.646     13.764
REMARK  Name = ./IMPHY000002_3D.pdb
REMARK  25 active torsions:
REMARK  status: ('A' for Active; 'I' for Inactive)
REMARK    1  A    between atoms: O_2  and  C_21
REMARK    2  A    between atoms: O_2  and  C_37
REMARK    3  A    between atoms: O_3  and  C_23
REMARK    4  A    between atoms: O_3  and  C_36
REMARK    5  A    between atoms: O_4  and  C_34
REMARK    6  A    between atoms: O_4  and  C_39
REMARK    7  A    between atoms: O_9  and  C_46
REMARK    8  A    between atoms: O_9  and  C_54
REMARK    9  A    between atoms: O_10  and  C_48
REMARK   10  A    between atoms: O_10  and  C_55
REMARK   11  A    between atoms: O_12  and  C_56
REMARK   12  A    between atoms: O_13  and  C_57
REMARK   13  A    between atoms: O_13  and  C_61
REMARK   14  A    between atoms: O_14  and  C_59
REMARK   15  A    between atoms: C_17  and  C_28
REMARK   16  A    between atoms: C_19  and  C_30
REMARK   17  A    between atoms: C_24  and  C_33
REMARK   18  A    between atoms: C_33  and  C_35
REMARK   19  A    between atoms: C_36  and  C_38
REMARK   20  A    between atoms: C_37  and  C_40
REMARK   21  A    between atoms: C_38  and  C_41
REMARK   22  A    between atoms: C_38  and  C_43
REMARK   23  A    between atoms: C_41  and  C_49
REMARK   24  A    between atoms: C_47  and  C_52
REMARK   25  A    between atoms: C_58  and  C_60
REMARK                            x       y       z     vdW  Elec       q    Type
REMARK                         _______ _______ _______ _____ _____    ______ ____
ROOT
ATOM      1  O   UNL     1     -18.896   3.542   4.069  0.00  0.00    +0.000 OA
ATOM      2  C   UNL     1     -18.855   3.928   2.688  0.00  0.00    +0.000 C 
ATOM      3  C   UNL     1     -17.863   4.467   3.712  0.00  0.00    +0.000 C 
ATOM      4  C   UNL     1     -18.511   2.822   1.715  0.00  0.00    +0.000 C 
ATOM      5  C   UNL     1     -16.438   3.922   3.741  0.00  0.00    +0.000 C 
ATOM      6  C   UNL     1     -15.835   4.028   5.211  0.00  0.00    +0.000 C 
ATOM      7  C   UNL     1     -20.038   4.722   2.201  0.00  0.00    +0.000 C 
ATOM      8  C   UNL     1     -16.990   2.539   1.641  0.00  0.00    +0.000 C 
ATOM      9  C   UNL     1     -18.061   5.846   4.279  0.00  0.00    +0.000 C 
ATOM     10  C   UNL     1     -16.320   2.535   3.046  0.00  0.00    +0.000 C 
ATOM     11  C   UNL     1     -19.134   3.381   0.393  0.00  0.00    +0.000 C 
ATOM     12  C   UNL     1     -16.008   5.512   5.689  0.00  0.00    +0.000 C 
ATOM     13  C   UNL     1     -20.428   4.064   0.869  0.00  0.00    +0.000 C 
ATOM     14  C   UNL     1     -17.471   5.966   5.678  0.00  0.00    +0.000 C 
ATOM     15  C   UNL     1     -19.277   1.527   2.112  0.00  0.00    +0.000 C 
ATOM     16  C   UNL     1     -14.310   3.721   5.242  0.00  0.00    +0.000 C 
ATOM     17  C   UNL     1     -16.542   3.026   6.160  0.00  0.00    +0.000 C 
ATOM     18  C   UNL     1     -15.364   5.797   7.052  0.00  0.00    +0.000 C 
ATOM     19  C   UNL     1     -13.629   4.042   6.573  0.00  0.00    +0.000 C 
ATOM     20  C   UNL     1     -13.867   5.477   7.035  0.00  0.00    +0.000 C 
ENDROOT
BRANCH  11  22
ATOM     21  O   UNL     1     -18.247   5.614   0.066  0.00  0.00    +0.000 OA
ATOM     22  C   UNL     1     -18.301   4.449  -0.329  0.00  0.00    +0.000 C 
ATOM     23  C   UNL     1     -17.652   4.043  -1.628  0.00  0.00    +0.000 C 
ENDBRANCH  11  22
BRANCH  20  24
ATOM     24  O   UNL     1     -13.306   5.593   8.346  0.00  0.00    +0.000 OA
BRANCH  24  26
ATOM     25  O   UNL     1     -14.127   7.118   9.922  0.00  0.00    +0.000 OA
ATOM     26  C   UNL     1     -14.268   5.814   9.374  0.00  0.00    +0.000 C 
ATOM     27  C   UNL     1     -14.004   4.789  10.465  0.00  0.00    +0.000 C 
ATOM     28  C   UNL     1     -14.974   4.958  11.633  0.00  0.00    +0.000 C 
ATOM     29  C   UNL     1     -15.118   7.388  10.913  0.00  0.00    +0.000 C 
ATOM     30  C   UNL     1     -15.013   6.427  12.118  0.00  0.00    +0.000 C 
ATOM     31  C   UNL     1     -14.941   8.842  11.345  0.00  0.00    +0.000 C 
BRANCH  28  32
ATOM     32  O   UNL     1     -14.538   4.119  12.718  0.00  0.00    +0.000 OA
ATOM     33  C   UNL     1     -15.270   2.904  12.821  0.00  0.00    +0.000 C 
ENDBRANCH  28  32
BRANCH  30  34
ATOM     34  O   UNL     1     -16.157   6.699  12.945  0.00  0.00    +0.000 OA
BRANCH  34  36
ATOM     35  O   UNL     1     -15.779   5.766  15.041  0.00  0.00    +0.000 OA
ATOM     36  C   UNL     1     -15.853   6.992  14.311  0.00  0.00    +0.000 C 
ATOM     37  C   UNL     1     -17.019   7.841  14.873  0.00  0.00    +0.000 C 
ATOM     38  C   UNL     1     -17.277   7.513  16.359  0.00  0.00    +0.000 C 
ATOM     39  C   UNL     1     -15.271   5.973  16.370  0.00  0.00    +0.000 C 
ATOM     40  C   UNL     1     -15.969   7.155  17.079  0.00  0.00    +0.000 C 
ATOM     41  C   UNL     1     -15.501   4.667  17.121  0.00  0.00    +0.000 C 
BRANCH  40  42
ATOM     42  O   UNL     1     -15.093   8.292  17.074  0.00  0.00    +0.000 OA
ATOM     43  H   UNL     1     -14.205   7.948  17.289  0.00  0.00    +0.000 HD
ENDBRANCH  40  42
BRANCH  38  44
ATOM     44  O   UNL     1     -17.876   8.642  17.031  0.00  0.00    +0.000 OA
ATOM     45  C   UNL     1     -19.289   8.509  17.164  0.00  0.00    +0.000 C 
ENDBRANCH  38  44
BRANCH  37  46
ATOM     46  O   UNL     1     -16.747   9.245  14.687  0.00  0.00    +0.000 OA
ATOM     47  H   UNL     1     -17.469   9.720  15.139  0.00  0.00    +0.000 HD
ENDBRANCH  37  46
ENDBRANCH  34  36
ENDBRANCH  30  34
ENDBRANCH  24  26
ENDBRANCH  20  24
BRANCH  10  48
ATOM     48  O   UNL     1     -14.913   2.253   2.825  0.00  0.00    +0.000 OA
BRANCH  48  50
ATOM     49  O   UNL     1     -15.071   0.229   3.908  0.00  0.00    +0.000 OA
ATOM     50  C   UNL     1     -14.445   1.042   3.241  0.00  0.00    +0.000 C 
BRANCH  50  51
ATOM     51  C   UNL     1     -13.027   0.843   2.734  0.00  0.00    +0.000 C 
ATOM     52  C   UNL     1     -13.034  -0.100   1.532  0.00  0.00    +0.000 C 
BRANCH  51  53
ATOM     53  C   UNL     1     -12.416   2.214   2.415  0.00  0.00    +0.000 C 
ATOM     54  C   UNL     1     -11.863   2.313   1.002  0.00  0.00    +0.000 C 
ENDBRANCH  51  53
ENDBRANCH  50  51
ENDBRANCH  48  50
ENDBRANCH  10  48
BRANCH   8  55
ATOM     55  O   UNL     1     -16.764   1.225   1.058  0.00  0.00    +0.000 OA
BRANCH  55  57
ATOM     56  O   UNL     1     -15.180   1.799  -0.492  0.00  0.00    +0.000 OA
ATOM     57  C   UNL     1     -16.154   1.152  -0.144  0.00  0.00    +0.000 C 
BRANCH  57  58
ATOM     58  C   UNL     1     -16.837   0.158  -1.015  0.00  0.00    +0.000 A 
ATOM     59  C   UNL     1     -16.143  -0.867  -1.673  0.00  0.00    +0.000 A 
ATOM     60  C   UNL     1     -18.225   0.264  -1.178  0.00  0.00    +0.000 A 
ATOM     61  C   UNL     1     -16.831  -1.770  -2.486  0.00  0.00    +0.000 A 
ATOM     62  C   UNL     1     -18.909  -0.642  -1.990  0.00  0.00    +0.000 A 
ATOM     63  C   UNL     1     -18.212  -1.657  -2.645  0.00  0.00    +0.000 A 
ENDBRANCH  57  58
ENDBRANCH  55  57
ENDBRANCH   8  55
TORSDOF 16
ENDMDL
MODEL 9
REMARK VINA RESULT:      -6.2      6.930     14.153
REMARK  Name = ./IMPHY000002_3D.pdb
REMARK  25 active torsions:
REMARK  status: ('A' for Active; 'I' for Inactive)
REMARK    1  A    between atoms: O_2  and  C_21
REMARK    2  A    between atoms: O_2  and  C_37
REMARK    3  A    between atoms: O_3  and  C_23
REMARK    4  A    between atoms: O_3  and  C_36
REMARK    5  A    between atoms: O_4  and  C_34
REMARK    6  A    between atoms: O_4  and  C_39
REMARK    7  A    between atoms: O_9  and  C_46
REMARK    8  A    between atoms: O_9  and  C_54
REMARK    9  A    between atoms: O_10  and  C_48
REMARK   10  A    between atoms: O_10  and  C_55
REMARK   11  A    between atoms: O_12  and  C_56
REMARK   12  A    between atoms: O_13  and  C_57
REMARK   13  A    between atoms: O_13  and  C_61
REMARK   14  A    between atoms: O_14  and  C_59
REMARK   15  A    between atoms: C_17  and  C_28
REMARK   16  A    between atoms: C_19  and  C_30
REMARK   17  A    between atoms: C_24  and  C_33
REMARK   18  A    between atoms: C_33  and  C_35
REMARK   19  A    between atoms: C_36  and  C_38
REMARK   20  A    between atoms: C_37  and  C_40
REMARK   21  A    between atoms: C_38  and  C_41
REMARK   22  A    between atoms: C_38  and  C_43
REMARK   23  A    between atoms: C_41  and  C_49
REMARK   24  A    between atoms: C_47  and  C_52
REMARK   25  A    between atoms: C_58  and  C_60
REMARK                            x       y       z     vdW  Elec       q    Type
REMARK                         _______ _______ _______ _____ _____    ______ ____
ROOT
ATOM      1  O   UNL     1     -17.854   3.128   4.568  0.00  0.00    +0.000 OA
ATOM      2  C   UNL     1     -17.652   3.486   3.194  0.00  0.00    +0.000 C 
ATOM      3  C   UNL     1     -16.905   4.175   4.330  0.00  0.00    +0.000 C 
ATOM      4  C   UNL     1     -17.025   2.413   2.330  0.00  0.00    +0.000 C 
ATOM      5  C   UNL     1     -15.443   3.824   4.593  0.00  0.00    +0.000 C 
ATOM      6  C   UNL     1     -15.091   4.042   6.131  0.00  0.00    +0.000 C 
ATOM      7  C   UNL     1     -18.839   4.104   2.503  0.00  0.00    +0.000 C 
ATOM      8  C   UNL     1     -15.487   2.333   2.495  0.00  0.00    +0.000 C 
ATOM      9  C   UNL     1     -17.362   5.527   4.802  0.00  0.00    +0.000 C 
ATOM     10  C   UNL     1     -15.045   2.450   3.983  0.00  0.00    +0.000 C 
ATOM     11  C   UNL     1     -17.505   2.855   0.908  0.00  0.00    +0.000 C 
ATOM     12  C   UNL     1     -15.523   5.501   6.514  0.00  0.00    +0.000 C 
ATOM     13  C   UNL     1     -18.933   3.370   1.157  0.00  0.00    +0.000 C 
ATOM     14  C   UNL     1     -17.014   5.756   6.267  0.00  0.00    +0.000 C 
ATOM     15  C   UNL     1     -17.671   1.037   2.663  0.00  0.00    +0.000 C 
ATOM     16  C   UNL     1     -13.562   3.941   6.401  0.00  0.00    +0.000 C 
ATOM     17  C   UNL     1     -15.801   2.977   7.006  0.00  0.00    +0.000 C 
ATOM     18  C   UNL     1     -15.136   5.899   7.945  0.00  0.00    +0.000 C 
ATOM     19  C   UNL     1     -13.139   4.380   7.804  0.00  0.00    +0.000 C 
ATOM     20  C   UNL     1     -13.626   5.781   8.164  0.00  0.00    +0.000 C 
ENDROOT
BRANCH  11  22
ATOM     21  O   UNL     1     -15.528   4.209   0.536  0.00  0.00    +0.000 OA
ATOM     22  C   UNL     1     -16.715   4.007   0.273  0.00  0.00    +0.000 C 
ATOM     23  C   UNL     1     -17.490   4.969  -0.592  0.00  0.00    +0.000 C 
ENDBRANCH  11  22
BRANCH  20  24
ATOM     24  O   UNL     1     -13.291   6.000   9.537  0.00  0.00    +0.000 OA
BRANCH  24  26
ATOM     25  O   UNL     1     -14.611   7.620  10.594  0.00  0.00    +0.000 OA
ATOM     26  C   UNL     1     -14.417   6.228  10.382  0.00  0.00    +0.000 C 
ATOM     27  C   UNL     1     -14.120   5.562  11.715  0.00  0.00    +0.000 C 
ATOM     28  C   UNL     1     -15.263   5.771  12.707  0.00  0.00    +0.000 C 
ATOM     29  C   UNL     1     -15.769   7.879  11.388  0.00  0.00    +0.000 C 
ATOM     30  C   UNL     1     -15.655   7.265  12.800  0.00  0.00    +0.000 C 
ATOM     31  C   UNL     1     -15.941   9.395  11.453  0.00  0.00    +0.000 C 
BRANCH  28  32
ATOM     32  O   UNL     1     -14.834   5.318  14.005  0.00  0.00    +0.000 OA
ATOM     33  C   UNL     1     -13.422   5.335  14.170  0.00  0.00    +0.000 C 
ENDBRANCH  28  32
BRANCH  30  34
ATOM     34  O   UNL     1     -16.938   7.455  13.421  0.00  0.00    +0.000 OA
BRANCH  34  36
ATOM     35  O   UNL     1     -18.879   6.682  12.398  0.00  0.00    +0.000 OA
ATOM     36  C   UNL     1     -17.829   6.342  13.306  0.00  0.00    +0.000 C 
ATOM     37  C   UNL     1     -18.438   6.090  14.707  0.00  0.00    +0.000 C 
ATOM     38  C   UNL     1     -19.899   5.603  14.596  0.00  0.00    +0.000 C 
ATOM     39  C   UNL     1     -19.689   5.538  12.077  0.00  0.00    +0.000 C 
ATOM     40  C   UNL     1     -20.100   4.747  13.338  0.00  0.00    +0.000 C 
ATOM     41  C   UNL     1     -20.912   6.077  11.343  0.00  0.00    +0.000 C 
BRANCH  40  42
ATOM     42  O   UNL     1     -19.296   3.561  13.433  0.00  0.00    +0.000 OA
ATOM     43  H   UNL     1     -18.383   3.867  13.592  0.00  0.00    +0.000 HD
ENDBRANCH  40  42
BRANCH  38  44
ATOM     44  O   UNL     1     -20.258   4.814  15.751  0.00  0.00    +0.000 OA
ATOM     45  C   UNL     1     -21.669   4.666  15.890  0.00  0.00    +0.000 C 
ENDBRANCH  38  44
BRANCH  37  46
ATOM     46  O   UNL     1     -17.628   5.150  15.440  0.00  0.00    +0.000 OA
ATOM     47  H   UNL     1     -16.724   5.240  15.085  0.00  0.00    +0.000 HD
ENDBRANCH  37  46
ENDBRANCH  34  36
ENDBRANCH  30  34
ENDBRANCH  24  26
ENDBRANCH  20  24
BRANCH  10  48
ATOM     48  O   UNL     1     -13.596   2.352   3.985  0.00  0.00    +0.000 OA
BRANCH  48  50
ATOM     49  O   UNL     1     -11.941   0.755   4.060  0.00  0.00    +0.000 OA
ATOM     50  C   UNL     1     -13.049   1.166   4.378  0.00  0.00    +0.000 C 
BRANCH  50  51
ATOM     51  C   UNL     1     -14.020   0.435   5.289  0.00  0.00    +0.000 C 
ATOM     52  C   UNL     1     -14.398  -0.911   4.670  0.00  0.00    +0.000 C 
BRANCH  51  53
ATOM     53  C   UNL     1     -13.388   0.298   6.681  0.00  0.00    +0.000 C 
ATOM     54  C   UNL     1     -14.302  -0.377   7.692  0.00  0.00    +0.000 C 
ENDBRANCH  51  53
ENDBRANCH  50  51
ENDBRANCH  48  50
ENDBRANCH  10  48
BRANCH   8  55
ATOM     55  O   UNL     1     -15.009   1.048   2.008  0.00  0.00    +0.000 OA
BRANCH  55  57
ATOM     56  O   UNL     1     -15.154   0.828  -0.266  0.00  0.00    +0.000 OA
ATOM     57  C   UNL     1     -14.507   0.981   0.757  0.00  0.00    +0.000 C 
BRANCH  57  58
ATOM     58  C   UNL     1     -13.026   1.120   0.781  0.00  0.00    +0.000 A 
ATOM     59  C   UNL     1     -12.166   0.014   0.737  0.00  0.00    +0.000 A 
ATOM     60  C   UNL     1     -12.483   2.410   0.854  0.00  0.00    +0.000 A 
ATOM     61  C   UNL     1     -10.783   0.198   0.771  0.00  0.00    +0.000 A 
ATOM     62  C   UNL     1     -11.099   2.591   0.885  0.00  0.00    +0.000 A 
ATOM     63  C   UNL     1     -10.250   1.485   0.844  0.00  0.00    +0.000 A 
ENDBRANCH  57  58
ENDBRANCH  55  57
ENDBRANCH   8  55
TORSDOF 16
ENDMDL
