MODEL 1
REMARK VINA RESULT:      -6.8      0.000      0.000
REMARK  Name = ./IMPHY000008_3D.pdb
REMARK  22 active torsions:
REMARK  status: ('A' for Active; 'I' for Inactive)
REMARK    1  A    between atoms: O_2  and  C_21
REMARK    2  A    between atoms: O_2  and  C_36
REMARK    3  A    between atoms: O_3  and  C_23
REMARK    4  A    between atoms: O_3  and  C_37
REMARK    5  A    between atoms: O_4  and  C_34
REMARK    6  A    between atoms: O_4  and  C_38
REMARK    7  A    between atoms: O_9  and  C_42
REMARK    8  A    between atoms: O_9  and  C_47
REMARK    9  A    between atoms: O_10  and  C_44
REMARK   10  A    between atoms: O_10  and  C_46
REMARK   11  A    between atoms: O_12  and  C_48
REMARK   12  A    between atoms: O_13  and  C_49
REMARK   13  A    between atoms: O_13  and  C_53
REMARK   14  A    between atoms: O_14  and  C_51
REMARK   15  A    between atoms: C_17  and  C_28
REMARK   16  A    between atoms: C_19  and  C_30
REMARK   17  A    between atoms: C_24  and  C_33
REMARK   18  A    between atoms: C_33  and  C_35
REMARK   19  A    between atoms: C_36  and  C_39
REMARK   20  A    between atoms: C_37  and  C_40
REMARK   21  A    between atoms: C_43  and  C_45
REMARK   22  A    between atoms: C_50  and  C_52
REMARK                            x       y       z     vdW  Elec       q    Type
REMARK                         _______ _______ _______ _____ _____    ______ ____
ROOT
ATOM      1  O   UNL     1     -18.412   3.649   4.103  0.00  0.00    +0.000 OA
ATOM      2  C   UNL     1     -18.269   3.936   2.726  0.00  0.00    +0.000 C 
ATOM      3  C   UNL     1     -17.333   4.545   3.771  0.00  0.00    +0.000 C 
ATOM      4  C   UNL     1     -17.971   2.708   1.875  0.00  0.00    +0.000 C 
ATOM      5  C   UNL     1     -15.887   4.080   3.802  0.00  0.00    +0.000 C 
ATOM      6  C   UNL     1     -15.366   3.940   5.286  0.00  0.00    +0.000 C 
ATOM      7  C   UNL     1     -19.170   4.849   1.982  0.00  0.00    +0.000 C 
ATOM      8  C   UNL     1     -16.646   2.025   2.336  0.00  0.00    +0.000 C 
ATOM      9  C   UNL     1     -17.567   5.862   4.473  0.00  0.00    +0.000 C 
ATOM     10  C   UNL     1     -15.524   2.996   2.748  0.00  0.00    +0.000 C 
ATOM     11  C   UNL     1     -18.116   3.303   0.411  0.00  0.00    +0.000 C 
ATOM     12  C   UNL     1     -15.619   5.322   5.993  0.00  0.00    +0.000 C 
ATOM     13  C   UNL     1     -18.518   4.785   0.602  0.00  0.00    +0.000 C 
ATOM     14  C   UNL     1     -17.087   5.771   5.926  0.00  0.00    +0.000 C 
ATOM     15  C   UNL     1     -19.139   1.683   2.033  0.00  0.00    +0.000 C 
ATOM     16  C   UNL     1     -13.829   3.705   5.330  0.00  0.00    +0.000 C 
ATOM     17  C   UNL     1     -16.054   2.773   6.021  0.00  0.00    +0.000 C 
ATOM     18  C   UNL     1     -15.081   5.371   7.431  0.00  0.00    +0.000 C 
ATOM     19  C   UNL     1     -13.242   3.769   6.742  0.00  0.00    +0.000 C 
ATOM     20  C   UNL     1     -13.577   5.071   7.474  0.00  0.00    +0.000 C 
ENDROOT
BRANCH  11  22
ATOM     21  O   UNL     1     -16.371   4.016  -1.100  0.00  0.00    +0.000 OA
ATOM     22  C   UNL     1     -17.002   3.080  -0.609  0.00  0.00    +0.000 C 
ATOM     23  C   UNL     1     -16.577   1.663  -0.907  0.00  0.00    +0.000 C 
ENDBRANCH  11  22
BRANCH   8  24
ATOM     24  O   UNL     1     -16.930   1.135   3.451  0.00  0.00    +0.000 OA
BRANCH  24  26
ATOM     25  O   UNL     1     -15.642  -0.436   4.526  0.00  0.00    +0.000 OA
ATOM     26  C   UNL     1     -16.201  -0.012   3.525  0.00  0.00    +0.000 C 
ATOM     27  C   UNL     1     -16.152  -0.678   2.184  0.00  0.00    +0.000 C 
ENDBRANCH  24  26
ENDBRANCH   8  24
BRANCH  10  28
ATOM     28  O   UNL     1     -15.111   3.683   1.530  0.00  0.00    +0.000 OA
BRANCH  28  30
ATOM     29  O   UNL     1     -13.330   2.808   0.366  0.00  0.00    +0.000 OA
ATOM     30  C   UNL     1     -13.797   3.580   1.189  0.00  0.00    +0.000 C 
ATOM     31  C   UNL     1     -12.982   4.550   1.988  0.00  0.00    +0.000 C 
ENDBRANCH  28  30
ENDBRANCH  10  28
BRANCH  20  32
ATOM     32  O   UNL     1     -13.109   4.919   8.818  0.00  0.00    +0.000 OA
BRANCH  32  34
ATOM     33  O   UNL     1     -14.081   6.529  10.226  0.00  0.00    +0.000 OA
ATOM     34  C   UNL     1     -14.089   5.166   9.824  0.00  0.00    +0.000 C 
ATOM     35  C   UNL     1     -13.729   4.298  11.019  0.00  0.00    +0.000 C 
ATOM     36  C   UNL     1     -14.714   4.497  12.170  0.00  0.00    +0.000 C 
ATOM     37  C   UNL     1     -15.102   6.805  11.185  0.00  0.00    +0.000 C 
ATOM     38  C   UNL     1     -14.908   6.000  12.488  0.00  0.00    +0.000 C 
ATOM     39  C   UNL     1     -15.078   8.308  11.451  0.00  0.00    +0.000 C 
BRANCH  36  40
ATOM     40  O   UNL     1     -14.199   3.836  13.341  0.00  0.00    +0.000 OA
ATOM     41  C   UNL     1     -13.029   4.450  13.868  0.00  0.00    +0.000 C 
ENDBRANCH  36  40
BRANCH  38  42
ATOM     42  O   UNL     1     -16.076   6.248  13.289  0.00  0.00    +0.000 OA
BRANCH  42  44
ATOM     43  O   UNL     1     -15.696   6.015  15.567  0.00  0.00    +0.000 OA
ATOM     44  C   UNL     1     -15.835   6.958  14.505  0.00  0.00    +0.000 C 
ATOM     45  C   UNL     1     -17.059   7.876  14.768  0.00  0.00    +0.000 C 
ATOM     46  C   UNL     1     -17.474   7.829  16.258  0.00  0.00    +0.000 C 
ATOM     47  C   UNL     1     -15.296   6.654  16.792  0.00  0.00    +0.000 C 
ATOM     48  C   UNL     1     -16.218   7.840  17.141  0.00  0.00    +0.000 C 
ATOM     49  C   UNL     1     -15.356   5.579  17.870  0.00  0.00    +0.000 C 
BRANCH  45  50
ATOM     50  O   UNL     1     -16.750   9.222  14.353  0.00  0.00    +0.000 OA
ATOM     51  H   UNL     1     -17.494   9.777  14.661  0.00  0.00    +0.000 HD
ENDBRANCH  45  50
BRANCH  46  52
ATOM     52  O   UNL     1     -18.279   8.954  16.664  0.00  0.00    +0.000 OA
ATOM     53  C   UNL     1     -19.018   8.709  17.855  0.00  0.00    +0.000 C 
ENDBRANCH  46  52
BRANCH  48  54
ATOM     54  O   UNL     1     -15.526   9.083  16.902  0.00  0.00    +0.000 OA
ATOM     55  H   UNL     1     -16.200   9.774  17.076  0.00  0.00    +0.000 HD
ENDBRANCH  48  54
ENDBRANCH  42  44
ENDBRANCH  38  42
ENDBRANCH  32  34
ENDBRANCH  20  32
TORSDOF 13
ENDMDL
MODEL 2
REMARK VINA RESULT:      -6.7      7.828     12.178
REMARK  Name = ./IMPHY000008_3D.pdb
REMARK  22 active torsions:
REMARK  status: ('A' for Active; 'I' for Inactive)
REMARK    1  A    between atoms: O_2  and  C_21
REMARK    2  A    between atoms: O_2  and  C_36
REMARK    3  A    between atoms: O_3  and  C_23
REMARK    4  A    between atoms: O_3  and  C_37
REMARK    5  A    between atoms: O_4  and  C_34
REMARK    6  A    between atoms: O_4  and  C_38
REMARK    7  A    between atoms: O_9  and  C_42
REMARK    8  A    between atoms: O_9  and  C_47
REMARK    9  A    between atoms: O_10  and  C_44
REMARK   10  A    between atoms: O_10  and  C_46
REMARK   11  A    between atoms: O_12  and  C_48
REMARK   12  A    between atoms: O_13  and  C_49
REMARK   13  A    between atoms: O_13  and  C_53
REMARK   14  A    between atoms: O_14  and  C_51
REMARK   15  A    between atoms: C_17  and  C_28
REMARK   16  A    between atoms: C_19  and  C_30
REMARK   17  A    between atoms: C_24  and  C_33
REMARK   18  A    between atoms: C_33  and  C_35
REMARK   19  A    between atoms: C_36  and  C_39
REMARK   20  A    between atoms: C_37  and  C_40
REMARK   21  A    between atoms: C_43  and  C_45
REMARK   22  A    between atoms: C_50  and  C_52
REMARK                            x       y       z     vdW  Elec       q    Type
REMARK                         _______ _______ _______ _____ _____    ______ ____
ROOT
ATOM      1  O   UNL     1     -26.250   9.214  13.352  0.00  0.00    +0.000 OA
ATOM      2  C   UNL     1     -26.681  10.178  12.411  0.00  0.00    +0.000 C 
ATOM      3  C   UNL     1     -25.288   9.551  12.333  0.00  0.00    +0.000 C 
ATOM      4  C   UNL     1     -27.897   9.743  11.605  0.00  0.00    +0.000 C 
ATOM      5  C   UNL     1     -24.990   8.599  11.188  0.00  0.00    +0.000 C 
ATOM      6  C   UNL     1     -24.107   7.383  11.674  0.00  0.00    +0.000 C 
ATOM      7  C   UNL     1     -26.775  11.628  12.709  0.00  0.00    +0.000 C 
ATOM      8  C   UNL     1     -27.593   8.436  10.808  0.00  0.00    +0.000 C 
ATOM      9  C   UNL     1     -24.053  10.109  13.002  0.00  0.00    +0.000 C 
ATOM     10  C   UNL     1     -26.175   8.354  10.212  0.00  0.00    +0.000 C 
ATOM     11  C   UNL     1     -28.269  11.090  10.853  0.00  0.00    +0.000 C 
ATOM     12  C   UNL     1     -22.831   7.989  12.363  0.00  0.00    +0.000 C 
ATOM     13  C   UNL     1     -27.247  12.139  11.350  0.00  0.00    +0.000 C 
ATOM     14  C   UNL     1     -23.169   8.962  13.503  0.00  0.00    +0.000 C 
ATOM     15  C   UNL     1     -29.083   9.463  12.582  0.00  0.00    +0.000 C 
ATOM     16  C   UNL     1     -23.593   6.537  10.474  0.00  0.00    +0.000 C 
ATOM     17  C   UNL     1     -24.895   6.452  12.617  0.00  0.00    +0.000 C 
ATOM     18  C   UNL     1     -21.825   6.920  12.816  0.00  0.00    +0.000 C 
ATOM     19  C   UNL     1     -22.567   5.473  10.872  0.00  0.00    +0.000 C 
ATOM     20  C   UNL     1     -21.372   6.046  11.639  0.00  0.00    +0.000 C 
ENDROOT
BRANCH  11  22
ATOM     21  O   UNL     1     -29.269  10.313   8.794  0.00  0.00    +0.000 OA
ATOM     22  C   UNL     1     -28.474  11.079   9.339  0.00  0.00    +0.000 C 
ATOM     23  C   UNL     1     -27.782  12.137   8.516  0.00  0.00    +0.000 C 
ENDBRANCH  11  22
BRANCH   8  24
ATOM     24  O   UNL     1     -27.805   7.287  11.675  0.00  0.00    +0.000 OA
BRANCH  24  26
ATOM     25  O   UNL     1     -27.825   5.029  11.253  0.00  0.00    +0.000 OA
ATOM     26  C   UNL     1     -28.276   6.152  11.090  0.00  0.00    +0.000 C 
ATOM     27  C   UNL     1     -29.422   6.480  10.182  0.00  0.00    +0.000 C 
ENDBRANCH  24  26
ENDBRANCH   8  24
BRANCH  10  28
ATOM     28  O   UNL     1     -26.110   9.374   9.172  0.00  0.00    +0.000 OA
BRANCH  28  30
ATOM     29  O   UNL     1     -25.748   9.591   6.910  0.00  0.00    +0.000 OA
ATOM     30  C   UNL     1     -26.069   8.930   7.885  0.00  0.00    +0.000 C 
ATOM     31  C   UNL     1     -26.497   7.496   7.823  0.00  0.00    +0.000 C 
ENDBRANCH  28  30
ENDBRANCH  10  28
BRANCH  20  32
ATOM     32  O   UNL     1     -20.594   4.929  12.081  0.00  0.00    +0.000 OA
BRANCH  32  34
ATOM     33  O   UNL     1     -18.836   6.242  11.239  0.00  0.00    +0.000 OA
ATOM     34  C   UNL     1     -19.233   4.943  11.655  0.00  0.00    +0.000 C 
ATOM     35  C   UNL     1     -19.126   3.992  10.474  0.00  0.00    +0.000 C 
ATOM     36  C   UNL     1     -17.701   3.941   9.926  0.00  0.00    +0.000 C 
ATOM     37  C   UNL     1     -17.457   6.285  10.874  0.00  0.00    +0.000 C 
ATOM     38  C   UNL     1     -17.146   5.365   9.673  0.00  0.00    +0.000 C 
ATOM     39  C   UNL     1     -17.117   7.740  10.562  0.00  0.00    +0.000 C 
BRANCH  36  40
ATOM     40  O   UNL     1     -17.707   3.217   8.681  0.00  0.00    +0.000 OA
ATOM     41  C   UNL     1     -18.875   2.429   8.492  0.00  0.00    +0.000 C 
ENDBRANCH  36  40
BRANCH  38  42
ATOM     42  O   UNL     1     -15.716   5.381   9.518  0.00  0.00    +0.000 OA
BRANCH  42  44
ATOM     43  O   UNL     1     -16.386   5.662   7.313  0.00  0.00    +0.000 OA
ATOM     44  C   UNL     1     -15.257   5.509   8.171  0.00  0.00    +0.000 C 
ATOM     45  C   UNL     1     -14.488   4.210   7.809  0.00  0.00    +0.000 C 
ATOM     46  C   UNL     1     -14.862   3.725   6.387  0.00  0.00    +0.000 C 
ATOM     47  C   UNL     1     -15.987   5.953   5.963  0.00  0.00    +0.000 C 
ATOM     48  C   UNL     1     -14.956   4.931   5.442  0.00  0.00    +0.000 C 
ATOM     49  C   UNL     1     -17.261   5.917   5.127  0.00  0.00    +0.000 C 
BRANCH  45  50
ATOM     50  O   UNL     1     -13.069   4.442   7.925  0.00  0.00    +0.000 OA
ATOM     51  H   UNL     1     -12.966   5.396   8.114  0.00  0.00    +0.000 HD
ENDBRANCH  45  50
BRANCH  46  52
ATOM     52  O   UNL     1     -13.895   2.822   5.817  0.00  0.00    +0.000 OA
ATOM     53  C   UNL     1     -14.355   2.191   4.627  0.00  0.00    +0.000 C 
ENDBRANCH  46  52
BRANCH  48  54
ATOM     54  O   UNL     1     -13.650   5.543   5.383  0.00  0.00    +0.000 OA
ATOM     55  H   UNL     1     -13.164   5.151   6.139  0.00  0.00    +0.000 HD
ENDBRANCH  48  54
ENDBRANCH  42  44
ENDBRANCH  38  42
ENDBRANCH  32  34
ENDBRANCH  20  32
TORSDOF 13
ENDMDL
MODEL 3
REMARK VINA RESULT:      -6.4      7.738     11.472
REMARK  Name = ./IMPHY000008_3D.pdb
REMARK  22 active torsions:
REMARK  status: ('A' for Active; 'I' for Inactive)
REMARK    1  A    between atoms: O_2  and  C_21
REMARK    2  A    between atoms: O_2  and  C_36
REMARK    3  A    between atoms: O_3  and  C_23
REMARK    4  A    between atoms: O_3  and  C_37
REMARK    5  A    between atoms: O_4  and  C_34
REMARK    6  A    between atoms: O_4  and  C_38
REMARK    7  A    between atoms: O_9  and  C_42
REMARK    8  A    between atoms: O_9  and  C_47
REMARK    9  A    between atoms: O_10  and  C_44
REMARK   10  A    between atoms: O_10  and  C_46
REMARK   11  A    between atoms: O_12  and  C_48
REMARK   12  A    between atoms: O_13  and  C_49
REMARK   13  A    between atoms: O_13  and  C_53
REMARK   14  A    between atoms: O_14  and  C_51
REMARK   15  A    between atoms: C_17  and  C_28
REMARK   16  A    between atoms: C_19  and  C_30
REMARK   17  A    between atoms: C_24  and  C_33
REMARK   18  A    between atoms: C_33  and  C_35
REMARK   19  A    between atoms: C_36  and  C_39
REMARK   20  A    between atoms: C_37  and  C_40
REMARK   21  A    between atoms: C_43  and  C_45
REMARK   22  A    between atoms: C_50  and  C_52
REMARK                            x       y       z     vdW  Elec       q    Type
REMARK                         _______ _______ _______ _____ _____    ______ ____
ROOT
ATOM      1  O   UNL     1     -26.207   9.120  13.351  0.00  0.00    +0.000 OA
ATOM      2  C   UNL     1     -26.660  10.056  12.394  0.00  0.00    +0.000 C 
ATOM      3  C   UNL     1     -25.250   9.466  12.330  0.00  0.00    +0.000 C 
ATOM      4  C   UNL     1     -27.862   9.576  11.592  0.00  0.00    +0.000 C 
ATOM      5  C   UNL     1     -24.923   8.505  11.201  0.00  0.00    +0.000 C 
ATOM      6  C   UNL     1     -24.009   7.320  11.709  0.00  0.00    +0.000 C 
ATOM      7  C   UNL     1     -26.795  11.508  12.669  0.00  0.00    +0.000 C 
ATOM      8  C   UNL     1     -27.520   8.265  10.816  0.00  0.00    +0.000 C 
ATOM      9  C   UNL     1     -24.034  10.068  12.994  0.00  0.00    +0.000 C 
ATOM     10  C   UNL     1     -26.098   8.213  10.226  0.00  0.00    +0.000 C 
ATOM     11  C   UNL     1     -28.267  10.900  10.817  0.00  0.00    +0.000 C 
ATOM     12  C   UNL     1     -22.752   7.972  12.393  0.00  0.00    +0.000 C 
ATOM     13  C   UNL     1     -27.276  11.985  11.301  0.00  0.00    +0.000 C 
ATOM     14  C   UNL     1     -23.120   8.954  13.516  0.00  0.00    +0.000 C 
ATOM     15  C   UNL     1     -29.042   9.279  12.569  0.00  0.00    +0.000 C 
ATOM     16  C   UNL     1     -23.468   6.470  10.524  0.00  0.00    +0.000 C 
ATOM     17  C   UNL     1     -24.775   6.384  12.665  0.00  0.00    +0.000 C 
ATOM     18  C   UNL     1     -21.720   6.938  12.865  0.00  0.00    +0.000 C 
ATOM     19  C   UNL     1     -22.415   5.441  10.943  0.00  0.00    +0.000 C 
ATOM     20  C   UNL     1     -21.239   6.058  11.704  0.00  0.00    +0.000 C 
ENDROOT
BRANCH  11  22
ATOM     21  O   UNL     1     -29.238  10.064   8.768  0.00  0.00    +0.000 OA
ATOM     22  C   UNL     1     -28.466  10.860   9.303  0.00  0.00    +0.000 C 
ATOM     23  C   UNL     1     -27.802  11.924   8.465  0.00  0.00    +0.000 C 
ENDBRANCH  11  22
BRANCH   8  24
ATOM     24  O   UNL     1     -27.703   7.125  11.701  0.00  0.00    +0.000 OA
BRANCH  24  26
ATOM     25  O   UNL     1     -27.613   4.870  11.270  0.00  0.00    +0.000 OA
ATOM     26  C   UNL     1     -28.134   5.966  11.131  0.00  0.00    +0.000 C 
ATOM     27  C   UNL     1     -29.334   6.230  10.274  0.00  0.00    +0.000 C 
ENDBRANCH  24  26
ENDBRANCH   8  24
BRANCH  10  28
ATOM     28  O   UNL     1     -26.057   9.217   9.170  0.00  0.00    +0.000 OA
BRANCH  28  30
ATOM     29  O   UNL     1     -25.807   9.401   6.890  0.00  0.00    +0.000 OA
ATOM     30  C   UNL     1     -26.085   8.756   7.889  0.00  0.00    +0.000 C 
ATOM     31  C   UNL     1     -26.530   7.326   7.868  0.00  0.00    +0.000 C 
ENDBRANCH  28  30
ENDBRANCH  10  28
BRANCH  20  32
ATOM     32  O   UNL     1     -20.433   4.970  12.166  0.00  0.00    +0.000 OA
BRANCH  32  34
ATOM     33  O   UNL     1     -18.465   3.706  11.942  0.00  0.00    +0.000 OA
ATOM     34  C   UNL     1     -19.342   4.629  11.312  0.00  0.00    +0.000 C 
ATOM     35  C   UNL     1     -18.582   5.913  11.024  0.00  0.00    +0.000 C 
ATOM     36  C   UNL     1     -17.376   5.658  10.123  0.00  0.00    +0.000 C 
ATOM     37  C   UNL     1     -17.405   3.304  11.074  0.00  0.00    +0.000 C 
ATOM     38  C   UNL     1     -16.510   4.493  10.662  0.00  0.00    +0.000 C 
ATOM     39  C   UNL     1     -16.602   2.232  11.807  0.00  0.00    +0.000 C 
BRANCH  36  40
ATOM     40  O   UNL     1     -16.571   6.852  10.075  0.00  0.00    +0.000 OA
ATOM     41  C   UNL     1     -16.929   7.815  11.059  0.00  0.00    +0.000 C 
ENDBRANCH  36  40
BRANCH  38  42
ATOM     42  O   UNL     1     -15.597   3.982   9.676  0.00  0.00    +0.000 OA
BRANCH  42  44
ATOM     43  O   UNL     1     -13.732   2.764  10.330  0.00  0.00    +0.000 OA
ATOM     44  C   UNL     1     -14.215   4.072  10.028  0.00  0.00    +0.000 C 
ATOM     45  C   UNL     1     -14.106   4.979  11.284  0.00  0.00    +0.000 C 
ATOM     46  C   UNL     1     -13.114   4.383  12.311  0.00  0.00    +0.000 C 
ATOM     47  C   UNL     1     -12.310   2.762  10.541  0.00  0.00    +0.000 C 
ATOM     48  C   UNL     1     -11.888   3.825  11.575  0.00  0.00    +0.000 C 
ATOM     49  C   UNL     1     -11.954   1.360  11.021  0.00  0.00    +0.000 C 
BRANCH  45  50
ATOM     50  O   UNL     1     -13.711   6.308  10.885  0.00  0.00    +0.000 OA
ATOM     51  H   UNL     1     -13.980   6.900  11.616  0.00  0.00    +0.000 HD
ENDBRANCH  45  50
BRANCH  46  52
ATOM     52  O   UNL     1     -12.626   5.348  13.263  0.00  0.00    +0.000 OA
ATOM     53  C   UNL     1     -13.359   5.348  14.483  0.00  0.00    +0.000 C 
ENDBRANCH  46  52
BRANCH  48  54
ATOM     54  O   UNL     1     -11.240   4.927  10.907  0.00  0.00    +0.000 OA
ATOM     55  H   UNL     1     -11.482   4.814   9.963  0.00  0.00    +0.000 HD
ENDBRANCH  48  54
ENDBRANCH  42  44
ENDBRANCH  38  42
ENDBRANCH  32  34
ENDBRANCH  20  32
TORSDOF 13
ENDMDL
MODEL 4
REMARK VINA RESULT:      -6.3      8.357     11.991
REMARK  Name = ./IMPHY000008_3D.pdb
REMARK  22 active torsions:
REMARK  status: ('A' for Active; 'I' for Inactive)
REMARK    1  A    between atoms: O_2  and  C_21
REMARK    2  A    between atoms: O_2  and  C_36
REMARK    3  A    between atoms: O_3  and  C_23
REMARK    4  A    between atoms: O_3  and  C_37
REMARK    5  A    between atoms: O_4  and  C_34
REMARK    6  A    between atoms: O_4  and  C_38
REMARK    7  A    between atoms: O_9  and  C_42
REMARK    8  A    between atoms: O_9  and  C_47
REMARK    9  A    between atoms: O_10  and  C_44
REMARK   10  A    between atoms: O_10  and  C_46
REMARK   11  A    between atoms: O_12  and  C_48
REMARK   12  A    between atoms: O_13  and  C_49
REMARK   13  A    between atoms: O_13  and  C_53
REMARK   14  A    between atoms: O_14  and  C_51
REMARK   15  A    between atoms: C_17  and  C_28
REMARK   16  A    between atoms: C_19  and  C_30
REMARK   17  A    between atoms: C_24  and  C_33
REMARK   18  A    between atoms: C_33  and  C_35
REMARK   19  A    between atoms: C_36  and  C_39
REMARK   20  A    between atoms: C_37  and  C_40
REMARK   21  A    between atoms: C_43  and  C_45
REMARK   22  A    between atoms: C_50  and  C_52
REMARK                            x       y       z     vdW  Elec       q    Type
REMARK                         _______ _______ _______ _____ _____    ______ ____
ROOT
ATOM      1  O   UNL     1     -26.912   9.348  13.186  0.00  0.00    +0.000 OA
ATOM      2  C   UNL     1     -27.127  10.356  12.217  0.00  0.00    +0.000 C 
ATOM      3  C   UNL     1     -25.883   9.468  12.184  0.00  0.00    +0.000 C 
ATOM      4  C   UNL     1     -28.390  10.148  11.391  0.00  0.00    +0.000 C 
ATOM      5  C   UNL     1     -25.754   8.450  11.064  0.00  0.00    +0.000 C 
ATOM      6  C   UNL     1     -25.135   7.096  11.594  0.00  0.00    +0.000 C 
ATOM      7  C   UNL     1     -26.943  11.802  12.486  0.00  0.00    +0.000 C 
ATOM      8  C   UNL     1     -28.331   8.788  10.626  0.00  0.00    +0.000 C 
ATOM      9  C   UNL     1     -24.576   9.789  12.872  0.00  0.00    +0.000 C 
ATOM     10  C   UNL     1     -26.945   8.418  10.065  0.00  0.00    +0.000 C 
ATOM     11  C   UNL     1     -28.477  11.523  10.605  0.00  0.00    +0.000 C 
ATOM     12  C   UNL     1     -23.779   7.458  12.302  0.00  0.00    +0.000 C 
ATOM     13  C   UNL     1     -27.279  12.365  11.107  0.00  0.00    +0.000 C 
ATOM     14  C   UNL     1     -23.943   8.504  13.415  0.00  0.00    +0.000 C 
ATOM     15  C   UNL     1     -29.626  10.126  12.345  0.00  0.00    +0.000 C 
ATOM     16  C   UNL     1     -24.772   6.139  10.422  0.00  0.00    +0.000 C 
ATOM     17  C   UNL     1     -26.108   6.359  12.535  0.00  0.00    +0.000 C 
ATOM     18  C   UNL     1     -23.010   6.224  12.798  0.00  0.00    +0.000 C 
ATOM     19  C   UNL     1     -23.982   4.905  10.865  0.00  0.00    +0.000 C 
ATOM     20  C   UNL     1     -22.713   5.252  11.649  0.00  0.00    +0.000 C 
ENDROOT
BRANCH  11  22
ATOM     21  O   UNL     1     -29.469  10.789   8.527  0.00  0.00    +0.000 OA
ATOM     22  C   UNL     1     -28.649  11.517   9.088  0.00  0.00    +0.000 C 
ATOM     23  C   UNL     1     -27.891  12.540   8.277  0.00  0.00    +0.000 C 
ENDBRANCH  11  22
BRANCH   8  24
ATOM     24  O   UNL     1     -28.780   7.723  11.509  0.00  0.00    +0.000 OA
BRANCH  24  26
ATOM     25  O   UNL     1     -29.316   5.517  11.155  0.00  0.00    +0.000 OA
ATOM     26  C   UNL     1     -29.485   6.708  10.940  0.00  0.00    +0.000 C 
ATOM     27  C   UNL     1     -30.493   7.258   9.977  0.00  0.00    +0.000 C 
ENDBRANCH  24  26
ENDBRANCH   8  24
BRANCH  10  28
ATOM     28  O   UNL     1     -26.662   9.382   9.008  0.00  0.00    +0.000 OA
BRANCH  28  30
ATOM     29  O   UNL     1     -26.499   7.695   7.452  0.00  0.00    +0.000 OA
ATOM     30  C   UNL     1     -26.434   8.873   7.765  0.00  0.00    +0.000 C 
ATOM     31  C   UNL     1     -26.066   9.975   6.820  0.00  0.00    +0.000 C 
ENDBRANCH  28  30
ENDBRANCH  10  28
BRANCH  20  32
ATOM     32  O   UNL     1     -22.177   4.016  12.130  0.00  0.00    +0.000 OA
BRANCH  32  34
ATOM     33  O   UNL     1     -20.110   5.078  12.478  0.00  0.00    +0.000 OA
ATOM     34  C   UNL     1     -20.760   3.898  12.026  0.00  0.00    +0.000 C 
ATOM     35  C   UNL     1     -20.437   3.689  10.555  0.00  0.00    +0.000 C 
ATOM     36  C   UNL     1     -18.932   3.563  10.328  0.00  0.00    +0.000 C 
ATOM     37  C   UNL     1     -18.689   4.948  12.442  0.00  0.00    +0.000 C 
ATOM     38  C   UNL     1     -18.163   4.723  11.008  0.00  0.00    +0.000 C 
ATOM     39  C   UNL     1     -18.104   6.218  13.055  0.00  0.00    +0.000 C 
BRANCH  36  40
ATOM     40  O   UNL     1     -18.672   3.601   8.911  0.00  0.00    +0.000 OA
ATOM     41  C   UNL     1     -18.048   2.422   8.419  0.00  0.00    +0.000 C 
ENDBRANCH  36  40
BRANCH  38  42
ATOM     42  O   UNL     1     -16.757   4.452  11.137  0.00  0.00    +0.000 OA
BRANCH  42  44
ATOM     43  O   UNL     1     -14.657   4.371  10.149  0.00  0.00    +0.000 OA
ATOM     44  C   UNL     1     -15.939   4.994  10.098  0.00  0.00    +0.000 C 
ATOM     45  C   UNL     1     -15.798   6.519  10.356  0.00  0.00    +0.000 C 
ATOM     46  C   UNL     1     -14.340   6.984  10.128  0.00  0.00    +0.000 C 
ATOM     47  C   UNL     1     -13.837   4.758   9.033  0.00  0.00    +0.000 C 
ATOM     48  C   UNL     1     -13.768   6.291   8.884  0.00  0.00    +0.000 C 
ATOM     49  C   UNL     1     -12.456   4.172   9.299  0.00  0.00    +0.000 C 
BRANCH  45  50
ATOM     50  O   UNL     1     -16.715   7.238   9.505  0.00  0.00    +0.000 OA
ATOM     51  H   UNL     1     -16.203   7.490   8.710  0.00  0.00    +0.000 HD
ENDBRANCH  45  50
BRANCH  46  52
ATOM     52  O   UNL     1     -14.219   8.403   9.909  0.00  0.00    +0.000 OA
ATOM     53  C   UNL     1     -14.283   9.161  11.112  0.00  0.00    +0.000 C 
ENDBRANCH  46  52
BRANCH  48  54
ATOM     54  O   UNL     1     -14.558   6.707   7.750  0.00  0.00    +0.000 OA
ATOM     55  H   UNL     1     -14.869   7.606   7.988  0.00  0.00    +0.000 HD
ENDBRANCH  48  54
ENDBRANCH  42  44
ENDBRANCH  38  42
ENDBRANCH  32  34
ENDBRANCH  20  32
TORSDOF 13
ENDMDL
MODEL 5
REMARK VINA RESULT:      -6.2      7.834     11.595
REMARK  Name = ./IMPHY000008_3D.pdb
REMARK  22 active torsions:
REMARK  status: ('A' for Active; 'I' for Inactive)
REMARK    1  A    between atoms: O_2  and  C_21
REMARK    2  A    between atoms: O_2  and  C_36
REMARK    3  A    between atoms: O_3  and  C_23
REMARK    4  A    between atoms: O_3  and  C_37
REMARK    5  A    between atoms: O_4  and  C_34
REMARK    6  A    between atoms: O_4  and  C_38
REMARK    7  A    between atoms: O_9  and  C_42
REMARK    8  A    between atoms: O_9  and  C_47
REMARK    9  A    between atoms: O_10  and  C_44
REMARK   10  A    between atoms: O_10  and  C_46
REMARK   11  A    between atoms: O_12  and  C_48
REMARK   12  A    between atoms: O_13  and  C_49
REMARK   13  A    between atoms: O_13  and  C_53
REMARK   14  A    between atoms: O_14  and  C_51
REMARK   15  A    between atoms: C_17  and  C_28
REMARK   16  A    between atoms: C_19  and  C_30
REMARK   17  A    between atoms: C_24  and  C_33
REMARK   18  A    between atoms: C_33  and  C_35
REMARK   19  A    between atoms: C_36  and  C_39
REMARK   20  A    between atoms: C_37  and  C_40
REMARK   21  A    between atoms: C_43  and  C_45
REMARK   22  A    between atoms: C_50  and  C_52
REMARK                            x       y       z     vdW  Elec       q    Type
REMARK                         _______ _______ _______ _____ _____    ______ ____
ROOT
ATOM      1  O   UNL     1     -26.352   9.327  13.328  0.00  0.00    +0.000 OA
ATOM      2  C   UNL     1     -26.798  10.264  12.368  0.00  0.00    +0.000 C 
ATOM      3  C   UNL     1     -25.404   9.639  12.288  0.00  0.00    +0.000 C 
ATOM      4  C   UNL     1     -28.024   9.805  11.591  0.00  0.00    +0.000 C 
ATOM      5  C   UNL     1     -25.119   8.658  11.164  0.00  0.00    +0.000 C 
ATOM      6  C   UNL     1     -24.226   7.457  11.670  0.00  0.00    +0.000 C 
ATOM      7  C   UNL     1     -26.893  11.721  12.629  0.00  0.00    +0.000 C 
ATOM      8  C   UNL     1     -27.727   8.478  10.824  0.00  0.00    +0.000 C 
ATOM      9  C   UNL     1     -24.163  10.218  12.925  0.00  0.00    +0.000 C 
ATOM     10  C   UNL     1     -26.317   8.384  10.212  0.00  0.00    +0.000 C 
ATOM     11  C   UNL     1     -28.411  11.130  10.808  0.00  0.00    +0.000 C 
ATOM     12  C   UNL     1     -22.942   8.085  12.326  0.00  0.00    +0.000 C 
ATOM     13  C   UNL     1     -27.385  12.195  11.264  0.00  0.00    +0.000 C 
ATOM     14  C   UNL     1     -23.268   9.087  13.444  0.00  0.00    +0.000 C 
ATOM     15  C   UNL     1     -29.195   9.547  12.591  0.00  0.00    +0.000 C 
ATOM     16  C   UNL     1     -23.725   6.582  10.486  0.00  0.00    +0.000 C 
ATOM     17  C   UNL     1     -24.998   6.550  12.648  0.00  0.00    +0.000 C 
ATOM     18  C   UNL     1     -21.927   7.031  12.793  0.00  0.00    +0.000 C 
ATOM     19  C   UNL     1     -22.691   5.531  10.899  0.00  0.00    +0.000 C 
ATOM     20  C   UNL     1     -21.487   6.128  11.633  0.00  0.00    +0.000 C 
ENDROOT
BRANCH  11  22
ATOM     21  O   UNL     1     -29.447  10.307   8.786  0.00  0.00    +0.000 OA
ATOM     22  C   UNL     1     -28.635  11.078   9.298  0.00  0.00    +0.000 C 
ATOM     23  C   UNL     1     -27.943  12.105   8.436  0.00  0.00    +0.000 C 
ENDBRANCH  11  22
BRANCH   8  24
ATOM     24  O   UNL     1     -27.923   7.351  11.724  0.00  0.00    +0.000 OA
BRANCH  24  26
ATOM     25  O   UNL     1     -27.968   5.078  11.393  0.00  0.00    +0.000 OA
ATOM     26  C   UNL     1     -28.399   6.201  11.176  0.00  0.00    +0.000 C 
ATOM     27  C   UNL     1     -29.522   6.506  10.233  0.00  0.00    +0.000 C 
ENDBRANCH  24  26
ENDBRANCH   8  24
BRANCH  10  28
ATOM     28  O   UNL     1     -26.269   9.376   9.144  0.00  0.00    +0.000 OA
BRANCH  28  30
ATOM     29  O   UNL     1     -25.771   9.545   6.904  0.00  0.00    +0.000 OA
ATOM     30  C   UNL     1     -26.135   8.900   7.875  0.00  0.00    +0.000 C 
ATOM     31  C   UNL     1     -26.518   7.452   7.827  0.00  0.00    +0.000 C 
ENDBRANCH  28  30
ENDBRANCH  10  28
BRANCH  20  32
ATOM     32  O   UNL     1     -20.700   5.025  12.094  0.00  0.00    +0.000 OA
BRANCH  32  34
ATOM     33  O   UNL     1     -18.764   6.241  11.550  0.00  0.00    +0.000 OA
ATOM     34  C   UNL     1     -19.371   5.362  12.487  0.00  0.00    +0.000 C 
ATOM     35  C   UNL     1     -18.578   4.067  12.534  0.00  0.00    +0.000 C 
ATOM     36  C   UNL     1     -17.125   4.316  12.933  0.00  0.00    +0.000 C 
ATOM     37  C   UNL     1     -17.458   6.640  11.965  0.00  0.00    +0.000 C 
ATOM     38  C   UNL     1     -16.492   5.440  12.075  0.00  0.00    +0.000 C 
ATOM     39  C   UNL     1     -16.955   7.666  10.952  0.00  0.00    +0.000 C 
BRANCH  36  40
ATOM     40  O   UNL     1     -16.374   3.103  12.737  0.00  0.00    +0.000 OA
ATOM     41  C   UNL     1     -16.193   2.350  13.930  0.00  0.00    +0.000 C 
ENDBRANCH  36  40
BRANCH  38  42
ATOM     42  O   UNL     1     -15.279   5.955  12.650  0.00  0.00    +0.000 OA
BRANCH  42  44
ATOM     43  O   UNL     1     -14.435   5.023  10.698  0.00  0.00    +0.000 OA
ATOM     44  C   UNL     1     -14.083   5.594  11.957  0.00  0.00    +0.000 C 
ATOM     45  C   UNL     1     -13.333   4.546  12.823  0.00  0.00    +0.000 C 
ATOM     46  C   UNL     1     -12.785   3.396  11.945  0.00  0.00    +0.000 C 
ATOM     47  C   UNL     1     -13.275   4.781   9.885  0.00  0.00    +0.000 C 
ATOM     48  C   UNL     1     -12.205   3.973  10.646  0.00  0.00    +0.000 C 
ATOM     49  C   UNL     1     -13.767   4.019   8.660  0.00  0.00    +0.000 C 
BRANCH  45  50
ATOM     50  O   UNL     1     -12.274   5.195  13.556  0.00  0.00    +0.000 OA
ATOM     51  H   UNL     1     -12.565   6.120  13.689  0.00  0.00    +0.000 HD
ENDBRANCH  45  50
BRANCH  46  52
ATOM     52  O   UNL     1     -11.728   2.647  12.577  0.00  0.00    +0.000 OA
ATOM     53  C   UNL     1     -12.209   1.612  13.427  0.00  0.00    +0.000 C 
ENDBRANCH  46  52
BRANCH  48  54
ATOM     54  O   UNL     1     -11.105   4.835  11.003  0.00  0.00    +0.000 OA
ATOM     55  H   UNL     1     -10.936   5.362  10.193  0.00  0.00    +0.000 HD
ENDBRANCH  48  54
ENDBRANCH  42  44
ENDBRANCH  38  42
ENDBRANCH  32  34
ENDBRANCH  20  32
TORSDOF 13
ENDMDL
MODEL 6
REMARK VINA RESULT:      -6.2      2.710     11.416
REMARK  Name = ./IMPHY000008_3D.pdb
REMARK  22 active torsions:
REMARK  status: ('A' for Active; 'I' for Inactive)
REMARK    1  A    between atoms: O_2  and  C_21
REMARK    2  A    between atoms: O_2  and  C_36
REMARK    3  A    between atoms: O_3  and  C_23
REMARK    4  A    between atoms: O_3  and  C_37
REMARK    5  A    between atoms: O_4  and  C_34
REMARK    6  A    between atoms: O_4  and  C_38
REMARK    7  A    between atoms: O_9  and  C_42
REMARK    8  A    between atoms: O_9  and  C_47
REMARK    9  A    between atoms: O_10  and  C_44
REMARK   10  A    between atoms: O_10  and  C_46
REMARK   11  A    between atoms: O_12  and  C_48
REMARK   12  A    between atoms: O_13  and  C_49
REMARK   13  A    between atoms: O_13  and  C_53
REMARK   14  A    between atoms: O_14  and  C_51
REMARK   15  A    between atoms: C_17  and  C_28
REMARK   16  A    between atoms: C_19  and  C_30
REMARK   17  A    between atoms: C_24  and  C_33
REMARK   18  A    between atoms: C_33  and  C_35
REMARK   19  A    between atoms: C_36  and  C_39
REMARK   20  A    between atoms: C_37  and  C_40
REMARK   21  A    between atoms: C_43  and  C_45
REMARK   22  A    between atoms: C_50  and  C_52
REMARK                            x       y       z     vdW  Elec       q    Type
REMARK                         _______ _______ _______ _____ _____    ______ ____
ROOT
ATOM      1  O   UNL     1     -15.460   3.327  12.037  0.00  0.00    +0.000 OA
ATOM      2  C   UNL     1     -15.559   4.361  12.997  0.00  0.00    +0.000 C 
ATOM      3  C   UNL     1     -15.018   4.625  11.591  0.00  0.00    +0.000 C 
ATOM      4  C   UNL     1     -16.983   4.624  13.466  0.00  0.00    +0.000 C 
ATOM      5  C   UNL     1     -15.861   5.458  10.641  0.00  0.00    +0.000 C 
ATOM      6  C   UNL     1     -15.793   4.887   9.170  0.00  0.00    +0.000 C 
ATOM      7  C   UNL     1     -14.625   4.508  14.140  0.00  0.00    +0.000 C 
ATOM      8  C   UNL     1     -17.893   5.033  12.265  0.00  0.00    +0.000 C 
ATOM      9  C   UNL     1     -13.564   4.528  11.195  0.00  0.00    +0.000 C 
ATOM     10  C   UNL     1     -17.219   5.943  11.221  0.00  0.00    +0.000 C 
ATOM     11  C   UNL     1     -16.733   5.620  14.676  0.00  0.00    +0.000 C 
ATOM     12  C   UNL     1     -14.272   4.798   8.782  0.00  0.00    +0.000 C 
ATOM     13  C   UNL     1     -15.197   5.772  14.778  0.00  0.00    +0.000 C 
ATOM     14  C   UNL     1     -13.446   3.965   9.775  0.00  0.00    +0.000 C 
ATOM     15  C   UNL     1     -17.560   3.321  14.103  0.00  0.00    +0.000 C 
ATOM     16  C   UNL     1     -16.445   5.862   8.149  0.00  0.00    +0.000 C 
ATOM     17  C   UNL     1     -16.505   3.524   9.058  0.00  0.00    +0.000 C 
ATOM     18  C   UNL     1     -14.045   4.336   7.335  0.00  0.00    +0.000 C 
ATOM     19  C   UNL     1     -16.224   5.457   6.690  0.00  0.00    +0.000 C 
ATOM     20  C   UNL     1     -14.747   5.265   6.336  0.00  0.00    +0.000 C 
ENDROOT
BRANCH  11  22
ATOM     21  O   UNL     1     -18.729   6.982  14.662  0.00  0.00    +0.000 OA
ATOM     22  C   UNL     1     -17.501   6.938  14.742  0.00  0.00    +0.000 C 
ATOM     23  C   UNL     1     -16.735   8.198  15.059  0.00  0.00    +0.000 C 
ENDBRANCH  11  22
BRANCH   8  24
ATOM     24  O   UNL     1     -18.375   3.833  11.600  0.00  0.00    +0.000 OA
BRANCH  24  26
ATOM     25  O   UNL     1     -19.861   4.270   9.903  0.00  0.00    +0.000 OA
ATOM     26  C   UNL     1     -19.613   3.895  11.039  0.00  0.00    +0.000 C 
ATOM     27  C   UNL     1     -20.649   3.461  12.031  0.00  0.00    +0.000 C 
ENDBRANCH  24  26
ENDBRANCH   8  24
BRANCH  10  28
ATOM     28  O   UNL     1     -16.986   7.221  11.884  0.00  0.00    +0.000 OA
BRANCH  28  30
ATOM     29  O   UNL     1     -16.930   8.853  10.262  0.00  0.00    +0.000 OA
ATOM     30  C   UNL     1     -16.392   8.194  11.138  0.00  0.00    +0.000 C 
ATOM     31  C   UNL     1     -14.954   8.337  11.533  0.00  0.00    +0.000 C 
ENDBRANCH  28  30
ENDBRANCH  10  28
BRANCH  20  32
ATOM     32  O   UNL     1     -14.709   4.736   5.007  0.00  0.00    +0.000 OA
BRANCH  32  34
ATOM     33  O   UNL     1     -15.608   2.565   5.053  0.00  0.00    +0.000 OA
ATOM     34  C   UNL     1     -15.821   3.914   4.659  0.00  0.00    +0.000 C 
ATOM     35  C   UNL     1     -15.961   3.970   3.147  0.00  0.00    +0.000 C 
ATOM     36  C   UNL     1     -17.123   3.106   2.661  0.00  0.00    +0.000 C 
ATOM     37  C   UNL     1     -16.741   1.744   4.770  0.00  0.00    +0.000 C 
ATOM     38  C   UNL     1     -17.048   1.679   3.258  0.00  0.00    +0.000 C 
ATOM     39  C   UNL     1     -16.448   0.358   5.338  0.00  0.00    +0.000 C 
BRANCH  36  40
ATOM     40  O   UNL     1     -17.063   3.012   1.225  0.00  0.00    +0.000 OA
ATOM     41  C   UNL     1     -17.091   4.276   0.574  0.00  0.00    +0.000 C 
ENDBRANCH  36  40
BRANCH  38  42
ATOM     42  O   UNL     1     -18.289   0.963   3.134  0.00  0.00    +0.000 OA
BRANCH  42  44
ATOM     43  O   UNL     1     -20.191   1.411   4.388  0.00  0.00    +0.000 OA
ATOM     44  C   UNL     1     -19.463   1.773   3.216  0.00  0.00    +0.000 C 
ATOM     45  C   UNL     1     -20.321   1.492   1.952  0.00  0.00    +0.000 C 
ATOM     46  C   UNL     1     -21.818   1.359   2.320  0.00  0.00    +0.000 C 
ATOM     47  C   UNL     1     -21.302   2.294   4.614  0.00  0.00    +0.000 C 
ATOM     48  C   UNL     1     -22.188   2.426   3.359  0.00  0.00    +0.000 C 
ATOM     49  C   UNL     1     -22.087   1.700   5.778  0.00  0.00    +0.000 C 
BRANCH  45  50
ATOM     50  O   UNL     1     -20.111   2.542   0.985  0.00  0.00    +0.000 OA
ATOM     51  H   UNL     1     -19.195   2.855   1.121  0.00  0.00    +0.000 HD
ENDBRANCH  45  50
BRANCH  46  52
ATOM     52  O   UNL     1     -22.702   1.545   1.197  0.00  0.00    +0.000 OA
ATOM     53  C   UNL     1     -23.566   0.435   0.977  0.00  0.00    +0.000 C 
ENDBRANCH  46  52
BRANCH  48  54
ATOM     54  O   UNL     1     -21.985   3.718   2.751  0.00  0.00    +0.000 OA
ATOM     55  H   UNL     1     -22.860   3.948   2.372  0.00  0.00    +0.000 HD
ENDBRANCH  48  54
ENDBRANCH  42  44
ENDBRANCH  38  42
ENDBRANCH  32  34
ENDBRANCH  20  32
TORSDOF 13
ENDMDL
MODEL 7
REMARK VINA RESULT:      -6.1      1.418      2.337
REMARK  Name = ./IMPHY000008_3D.pdb
REMARK  22 active torsions:
REMARK  status: ('A' for Active; 'I' for Inactive)
REMARK    1  A    between atoms: O_2  and  C_21
REMARK    2  A    between atoms: O_2  and  C_36
REMARK    3  A    between atoms: O_3  and  C_23
REMARK    4  A    between atoms: O_3  and  C_37
REMARK    5  A    between atoms: O_4  and  C_34
REMARK    6  A    between atoms: O_4  and  C_38
REMARK    7  A    between atoms: O_9  and  C_42
REMARK    8  A    between atoms: O_9  and  C_47
REMARK    9  A    between atoms: O_10  and  C_44
REMARK   10  A    between atoms: O_10  and  C_46
REMARK   11  A    between atoms: O_12  and  C_48
REMARK   12  A    between atoms: O_13  and  C_49
REMARK   13  A    between atoms: O_13  and  C_53
REMARK   14  A    between atoms: O_14  and  C_51
REMARK   15  A    between atoms: C_17  and  C_28
REMARK   16  A    between atoms: C_19  and  C_30
REMARK   17  A    between atoms: C_24  and  C_33
REMARK   18  A    between atoms: C_33  and  C_35
REMARK   19  A    between atoms: C_36  and  C_39
REMARK   20  A    between atoms: C_37  and  C_40
REMARK   21  A    between atoms: C_43  and  C_45
REMARK   22  A    between atoms: C_50  and  C_52
REMARK                            x       y       z     vdW  Elec       q    Type
REMARK                         _______ _______ _______ _____ _____    ______ ____
ROOT
ATOM      1  O   UNL     1     -18.789   3.157   3.341  0.00  0.00    +0.000 OA
ATOM      2  C   UNL     1     -18.563   3.222   1.947  0.00  0.00    +0.000 C 
ATOM      3  C   UNL     1     -17.693   4.000   2.935  0.00  0.00    +0.000 C 
ATOM      4  C   UNL     1     -18.214   1.878   1.322  0.00  0.00    +0.000 C 
ATOM      5  C   UNL     1     -16.251   3.560   3.126  0.00  0.00    +0.000 C 
ATOM      6  C   UNL     1     -15.821   3.664   4.643  0.00  0.00    +0.000 C 
ATOM      7  C   UNL     1     -19.417   3.997   1.014  0.00  0.00    +0.000 C 
ATOM      8  C   UNL     1     -16.919   1.290   1.964  0.00  0.00    +0.000 C 
ATOM      9  C   UNL     1     -17.969   5.409   3.403  0.00  0.00    +0.000 C 
ATOM     10  C   UNL     1     -15.824   2.326   2.283  0.00  0.00    +0.000 C 
ATOM     11  C   UNL     1     -18.270   2.230  -0.224  0.00  0.00    +0.000 C 
ATOM     12  C   UNL     1     -16.117   5.137   5.104  0.00  0.00    +0.000 C 
ATOM     13  C   UNL     1     -18.684   3.720  -0.296  0.00  0.00    +0.000 C 
ATOM     14  C   UNL     1     -17.578   5.556   4.878  0.00  0.00    +0.000 C 
ATOM     15  C   UNL     1     -19.388   0.880   1.572  0.00  0.00    +0.000 C 
ATOM     16  C   UNL     1     -14.289   3.453   4.815  0.00  0.00    +0.000 C 
ATOM     17  C   UNL     1     -16.552   2.621   5.512  0.00  0.00    +0.000 C 
ATOM     18  C   UNL     1     -15.667   5.420   6.544  0.00  0.00    +0.000 C 
ATOM     19  C   UNL     1     -13.788   3.748   6.231  0.00  0.00    +0.000 C 
ATOM     20  C   UNL     1     -14.168   5.146   6.725  0.00  0.00    +0.000 C 
ENDROOT
BRANCH  11  22
ATOM     21  O   UNL     1     -16.669   0.707  -1.201  0.00  0.00    +0.000 OA
ATOM     22  C   UNL     1     -17.096   1.859  -1.128  0.00  0.00    +0.000 C 
ATOM     23  C   UNL     1     -16.548   2.913  -2.058  0.00  0.00    +0.000 C 
ENDBRANCH  11  22
BRANCH   8  24
ATOM     24  O   UNL     1     -17.269   0.586   3.188  0.00  0.00    +0.000 OA
BRANCH  24  26
ATOM     25  O   UNL     1     -17.145  -1.665   2.746  0.00  0.00    +0.000 OA
ATOM     26  C   UNL     1     -16.766  -0.669   3.343  0.00  0.00    +0.000 C 
ATOM     27  C   UNL     1     -15.688  -0.666   4.384  0.00  0.00    +0.000 C 
ENDBRANCH  24  26
ENDBRANCH   8  24
BRANCH  10  28
ATOM     28  O   UNL     1     -15.339   2.814   0.998  0.00  0.00    +0.000 OA
BRANCH  28  30
ATOM     29  O   UNL     1     -13.766   4.490   0.886  0.00  0.00    +0.000 OA
ATOM     30  C   UNL     1     -14.071   3.311   0.974  0.00  0.00    +0.000 C 
ATOM     31  C   UNL     1     -13.079   2.191   1.055  0.00  0.00    +0.000 C 
ENDBRANCH  28  30
ENDBRANCH  10  28
BRANCH  20  32
ATOM     32  O   UNL     1     -13.782   5.214   8.101  0.00  0.00    +0.000 OA
BRANCH  32  34
ATOM     33  O   UNL     1     -14.206   6.657   9.907  0.00  0.00    +0.000 OA
ATOM     34  C   UNL     1     -14.775   5.747   8.975  0.00  0.00    +0.000 C 
ATOM     35  C   UNL     1     -15.375   4.575   9.735  0.00  0.00    +0.000 C 
ATOM     36  C   UNL     1     -16.449   5.038  10.718  0.00  0.00    +0.000 C 
ATOM     37  C   UNL     1     -15.199   7.249  10.745  0.00  0.00    +0.000 C 
ATOM     38  C   UNL     1     -15.933   6.198  11.606  0.00  0.00    +0.000 C 
ATOM     39  C   UNL     1     -14.496   8.287  11.615  0.00  0.00    +0.000 C 
BRANCH  36  40
ATOM     40  O   UNL     1     -16.812   3.931  11.564  0.00  0.00    +0.000 OA
ATOM     41  C   UNL     1     -17.950   3.215  11.101  0.00  0.00    +0.000 C 
ENDBRANCH  36  40
BRANCH  38  42
ATOM     42  O   UNL     1     -16.999   6.900  12.270  0.00  0.00    +0.000 OA
BRANCH  42  44
ATOM     43  O   UNL     1     -17.057   7.968  14.330  0.00  0.00    +0.000 OA
ATOM     44  C   UNL     1     -17.066   6.697  13.682  0.00  0.00    +0.000 C 
ATOM     45  C   UNL     1     -15.814   5.880  14.102  0.00  0.00    +0.000 C 
ATOM     46  C   UNL     1     -15.196   6.447  15.403  0.00  0.00    +0.000 C 
ATOM     47  C   UNL     1     -17.281   7.841  15.745  0.00  0.00    +0.000 C 
ATOM     48  C   UNL     1     -16.316   6.821  16.383  0.00  0.00    +0.000 C 
ATOM     49  C   UNL     1     -17.074   9.232  16.333  0.00  0.00    +0.000 C 
BRANCH  45  50
ATOM     50  O   UNL     1     -16.176   4.491  14.257  0.00  0.00    +0.000 OA
ATOM     51  H   UNL     1     -17.145   4.450  14.134  0.00  0.00    +0.000 HD
ENDBRANCH  45  50
BRANCH  46  52
ATOM     52  O   UNL     1     -14.339   5.510  16.086  0.00  0.00    +0.000 OA
ATOM     53  C   UNL     1     -13.102   5.296  15.416  0.00  0.00    +0.000 C 
ENDBRANCH  46  52
BRANCH  48  54
ATOM     54  O   UNL     1     -17.032   5.612  16.712  0.00  0.00    +0.000 OA
ATOM     55  H   UNL     1     -17.198   5.683  17.676  0.00  0.00    +0.000 HD
ENDBRANCH  48  54
ENDBRANCH  42  44
ENDBRANCH  38  42
ENDBRANCH  32  34
ENDBRANCH  20  32
TORSDOF 13
ENDMDL
MODEL 8
REMARK VINA RESULT:      -6.0      2.596     12.509
REMARK  Name = ./IMPHY000008_3D.pdb
REMARK  22 active torsions:
REMARK  status: ('A' for Active; 'I' for Inactive)
REMARK    1  A    between atoms: O_2  and  C_21
REMARK    2  A    between atoms: O_2  and  C_36
REMARK    3  A    between atoms: O_3  and  C_23
REMARK    4  A    between atoms: O_3  and  C_37
REMARK    5  A    between atoms: O_4  and  C_34
REMARK    6  A    between atoms: O_4  and  C_38
REMARK    7  A    between atoms: O_9  and  C_42
REMARK    8  A    between atoms: O_9  and  C_47
REMARK    9  A    between atoms: O_10  and  C_44
REMARK   10  A    between atoms: O_10  and  C_46
REMARK   11  A    between atoms: O_12  and  C_48
REMARK   12  A    between atoms: O_13  and  C_49
REMARK   13  A    between atoms: O_13  and  C_53
REMARK   14  A    between atoms: O_14  and  C_51
REMARK   15  A    between atoms: C_17  and  C_28
REMARK   16  A    between atoms: C_19  and  C_30
REMARK   17  A    between atoms: C_24  and  C_33
REMARK   18  A    between atoms: C_33  and  C_35
REMARK   19  A    between atoms: C_36  and  C_39
REMARK   20  A    between atoms: C_37  and  C_40
REMARK   21  A    between atoms: C_43  and  C_45
REMARK   22  A    between atoms: C_50  and  C_52
REMARK                            x       y       z     vdW  Elec       q    Type
REMARK                         _______ _______ _______ _____ _____    ______ ____
ROOT
ATOM      1  O   UNL     1     -14.077   6.089  12.010  0.00  0.00    +0.000 OA
ATOM      2  C   UNL     1     -15.027   5.546  12.906  0.00  0.00    +0.000 C 
ATOM      3  C   UNL     1     -15.128   5.315  11.398  0.00  0.00    +0.000 C 
ATOM      4  C   UNL     1     -14.428   4.575  13.915  0.00  0.00    +0.000 C 
ATOM      5  C   UNL     1     -14.865   3.918  10.863  0.00  0.00    +0.000 C 
ATOM      6  C   UNL     1     -14.058   3.970   9.506  0.00  0.00    +0.000 C 
ATOM      7  C   UNL     1     -16.089   6.349  13.560  0.00  0.00    +0.000 C 
ATOM      8  C   UNL     1     -13.749   3.372  13.189  0.00  0.00    +0.000 C 
ATOM      9  C   UNL     1     -15.885   6.204  10.439  0.00  0.00    +0.000 C 
ATOM     10  C   UNL     1     -14.497   2.861  11.943  0.00  0.00    +0.000 C 
ATOM     11  C   UNL     1     -15.655   4.350  14.896  0.00  0.00    +0.000 C 
ATOM     12  C   UNL     1     -14.866   4.898   8.528  0.00  0.00    +0.000 C 
ATOM     13  C   UNL     1     -16.791   5.249  14.352  0.00  0.00    +0.000 C 
ATOM     14  C   UNL     1     -15.132   6.296   9.107  0.00  0.00    +0.000 C 
ATOM     15  C   UNL     1     -13.344   5.320  14.757  0.00  0.00    +0.000 C 
ATOM     16  C   UNL     1     -13.996   2.572   8.827  0.00  0.00    +0.000 C 
ATOM     17  C   UNL     1     -12.615   4.466   9.723  0.00  0.00    +0.000 C 
ATOM     18  C   UNL     1     -14.247   4.979   7.125  0.00  0.00    +0.000 C 
ATOM     19  C   UNL     1     -13.408   2.605   7.414  0.00  0.00    +0.000 C 
ATOM     20  C   UNL     1     -14.127   3.589   6.487  0.00  0.00    +0.000 C 
ENDROOT
BRANCH  11  22
ATOM     21  O   UNL     1     -17.191   2.485  14.921  0.00  0.00    +0.000 OA
ATOM     22  C   UNL     1     -16.090   2.929  15.248  0.00  0.00    +0.000 C 
ATOM     23  C   UNL     1     -15.080   2.008  15.887  0.00  0.00    +0.000 C 
ENDBRANCH  11  22
BRANCH   8  24
ATOM     24  O   UNL     1     -12.397   3.746  12.804  0.00  0.00    +0.000 OA
BRANCH  24  26
ATOM     25  O   UNL     1     -10.769   2.410  11.886  0.00  0.00    +0.000 OA
ATOM     26  C   UNL     1     -11.455   2.765  12.833  0.00  0.00    +0.000 C 
ATOM     27  C   UNL     1     -11.393   2.151  14.198  0.00  0.00    +0.000 C 
ENDBRANCH  24  26
ENDBRANCH   8  24
BRANCH  10  28
ATOM     28  O   UNL     1     -15.740   2.271  12.426  0.00  0.00    +0.000 OA
BRANCH  28  30
ATOM     29  O   UNL     1     -16.030   0.588  10.885  0.00  0.00    +0.000 OA
ATOM     30  C   UNL     1     -16.453   1.534  11.530  0.00  0.00    +0.000 C 
ATOM     31  C   UNL     1     -17.850   2.064  11.427  0.00  0.00    +0.000 C 
ENDBRANCH  28  30
ENDBRANCH  10  28
BRANCH  20  32
ATOM     32  O   UNL     1     -13.374   3.630   5.271  0.00  0.00    +0.000 OA
BRANCH  32  34
ATOM     33  O   UNL     1     -15.502   3.780   4.286  0.00  0.00    +0.000 OA
ATOM     34  C   UNL     1     -14.114   4.039   4.122  0.00  0.00    +0.000 C 
ATOM     35  C   UNL     1     -13.597   3.228   2.946  0.00  0.00    +0.000 C 
ATOM     36  C   UNL     1     -14.337   3.578   1.657  0.00  0.00    +0.000 C 
ATOM     37  C   UNL     1     -16.264   4.245   3.171  0.00  0.00    +0.000 C 
ATOM     38  C   UNL     1     -15.872   3.528   1.861  0.00  0.00    +0.000 C 
ATOM     39  C   UNL     1     -17.737   4.023   3.507  0.00  0.00    +0.000 C 
BRANCH  36  40
ATOM     40  O   UNL     1     -13.973   2.628   0.638  0.00  0.00    +0.000 OA
ATOM     41  C   UNL     1     -14.161   1.275   1.034  0.00  0.00    +0.000 C 
ENDBRANCH  36  40
BRANCH  38  42
ATOM     42  O   UNL     1     -16.590   4.197   0.810  0.00  0.00    +0.000 OA
BRANCH  42  44
ATOM     43  O   UNL     1     -17.652   2.135   0.709  0.00  0.00    +0.000 OA
ATOM     44  C   UNL     1     -17.403   3.347  -0.001  0.00  0.00    +0.000 C 
ATOM     45  C   UNL     1     -16.616   3.045  -1.305  0.00  0.00    +0.000 C 
ATOM     46  C   UNL     1     -16.737   1.551  -1.689  0.00  0.00    +0.000 C 
ATOM     47  C   UNL     1     -18.593   1.300   0.013  0.00  0.00    +0.000 C 
ATOM     48  C   UNL     1     -18.177   1.076  -1.454  0.00  0.00    +0.000 C 
ATOM     49  C   UNL     1     -18.635  -0.019   0.777  0.00  0.00    +0.000 C 
BRANCH  45  50
ATOM     50  O   UNL     1     -17.095   3.898  -2.366  0.00  0.00    +0.000 OA
ATOM     51  H   UNL     1     -17.669   3.336  -2.924  0.00  0.00    +0.000 HD
ENDBRANCH  45  50
BRANCH  46  52
ATOM     52  O   UNL     1     -16.430   1.288  -3.073  0.00  0.00    +0.000 OA
ATOM     53  C   UNL     1     -15.991  -0.046  -3.303  0.00  0.00    +0.000 C 
ENDBRANCH  46  52
BRANCH  48  54
ATOM     54  O   UNL     1     -19.037   1.838  -2.327  0.00  0.00    +0.000 OA
ATOM     55  H   UNL     1     -19.727   2.201  -1.732  0.00  0.00    +0.000 HD
ENDBRANCH  48  54
ENDBRANCH  42  44
ENDBRANCH  38  42
ENDBRANCH  32  34
ENDBRANCH  20  32
TORSDOF 13
ENDMDL
MODEL 9
REMARK VINA RESULT:      -6.0      8.040     12.285
REMARK  Name = ./IMPHY000008_3D.pdb
REMARK  22 active torsions:
REMARK  status: ('A' for Active; 'I' for Inactive)
REMARK    1  A    between atoms: O_2  and  C_21
REMARK    2  A    between atoms: O_2  and  C_36
REMARK    3  A    between atoms: O_3  and  C_23
REMARK    4  A    between atoms: O_3  and  C_37
REMARK    5  A    between atoms: O_4  and  C_34
REMARK    6  A    between atoms: O_4  and  C_38
REMARK    7  A    between atoms: O_9  and  C_42
REMARK    8  A    between atoms: O_9  and  C_47
REMARK    9  A    between atoms: O_10  and  C_44
REMARK   10  A    between atoms: O_10  and  C_46
REMARK   11  A    between atoms: O_12  and  C_48
REMARK   12  A    between atoms: O_13  and  C_49
REMARK   13  A    between atoms: O_13  and  C_53
REMARK   14  A    between atoms: O_14  and  C_51
REMARK   15  A    between atoms: C_17  and  C_28
REMARK   16  A    between atoms: C_19  and  C_30
REMARK   17  A    between atoms: C_24  and  C_33
REMARK   18  A    between atoms: C_33  and  C_35
REMARK   19  A    between atoms: C_36  and  C_39
REMARK   20  A    between atoms: C_37  and  C_40
REMARK   21  A    between atoms: C_43  and  C_45
REMARK   22  A    between atoms: C_50  and  C_52
REMARK                            x       y       z     vdW  Elec       q    Type
REMARK                         _______ _______ _______ _____ _____    ______ ____
ROOT
ATOM      1  O   UNL     1     -26.565   9.342  13.240  0.00  0.00    +0.000 OA
ATOM      2  C   UNL     1     -27.031  10.252  12.263  0.00  0.00    +0.000 C 
ATOM      3  C   UNL     1     -25.628   9.648  12.189  0.00  0.00    +0.000 C 
ATOM      4  C   UNL     1     -28.253   9.757  11.501  0.00  0.00    +0.000 C 
ATOM      5  C   UNL     1     -25.332   8.649  11.084  0.00  0.00    +0.000 C 
ATOM      6  C   UNL     1     -24.417   7.473  11.610  0.00  0.00    +0.000 C 
ATOM      7  C   UNL     1     -27.148  11.712  12.495  0.00  0.00    +0.000 C 
ATOM      8  C   UNL     1     -27.938   8.420  10.761  0.00  0.00    +0.000 C 
ATOM      9  C   UNL     1     -24.393  10.259  12.808  0.00  0.00    +0.000 C 
ATOM     10  C   UNL     1     -26.529   8.336  10.143  0.00  0.00    +0.000 C 
ATOM     11  C   UNL     1     -28.664  11.059  10.694  0.00  0.00    +0.000 C 
ATOM     12  C   UNL     1     -23.141   8.135  12.247  0.00  0.00    +0.000 C 
ATOM     13  C   UNL     1     -27.654  12.150  11.123  0.00  0.00    +0.000 C 
ATOM     14  C   UNL     1     -23.477   9.154  13.346  0.00  0.00    +0.000 C 
ATOM     15  C   UNL     1     -29.415   9.501  12.512  0.00  0.00    +0.000 C 
ATOM     16  C   UNL     1     -23.907   6.582  10.442  0.00  0.00    +0.000 C 
ATOM     17  C   UNL     1     -25.169   6.573  12.610  0.00  0.00    +0.000 C 
ATOM     18  C   UNL     1     -22.107   7.107  12.730  0.00  0.00    +0.000 C 
ATOM     19  C   UNL     1     -22.854   5.557  10.870  0.00  0.00    +0.000 C 
ATOM     20  C   UNL     1     -21.657   6.188  11.587  0.00  0.00    +0.000 C 
ENDROOT
BRANCH  11  22
ATOM     21  O   UNL     1     -28.273  11.676   8.390  0.00  0.00    +0.000 OA
ATOM     22  C   UNL     1     -28.895  10.973   9.187  0.00  0.00    +0.000 C 
ATOM     23  C   UNL     1     -29.809   9.892   8.663  0.00  0.00    +0.000 C 
ENDBRANCH  11  22
BRANCH   8  24
ATOM     24  O   UNL     1     -28.111   7.309  11.684  0.00  0.00    +0.000 OA
BRANCH  24  26
ATOM     25  O   UNL     1     -28.077   5.040  11.323  0.00  0.00    +0.000 OA
ATOM     26  C   UNL     1     -28.580   6.142  11.163  0.00  0.00    +0.000 C 
ATOM     27  C   UNL     1     -29.798   6.403  10.330  0.00  0.00    +0.000 C 
ENDBRANCH  24  26
ENDBRANCH   8  24
BRANCH  10  28
ATOM     28  O   UNL     1     -26.502   9.307   9.056  0.00  0.00    +0.000 OA
BRANCH  28  30
ATOM     29  O   UNL     1     -26.438   7.635   7.476  0.00  0.00    +0.000 OA
ATOM     30  C   UNL     1     -26.341   8.809   7.798  0.00  0.00    +0.000 C 
ATOM     31  C   UNL     1     -26.004   9.916   6.847  0.00  0.00    +0.000 C 
ENDBRANCH  28  30
ENDBRANCH  10  28
BRANCH  20  32
ATOM     32  O   UNL     1     -20.850   5.108  12.066  0.00  0.00    +0.000 OA
BRANCH  32  34
ATOM     33  O   UNL     1     -19.153   3.540  11.637  0.00  0.00    +0.000 OA
ATOM     34  C   UNL     1     -19.756   4.758  11.221  0.00  0.00    +0.000 C 
ATOM     35  C   UNL     1     -18.733   5.877  11.329  0.00  0.00    +0.000 C 
ATOM     36  C   UNL     1     -17.504   5.594  10.467  0.00  0.00    +0.000 C 
ATOM     37  C   UNL     1     -18.099   3.143  10.760  0.00  0.00    +0.000 C 
ATOM     38  C   UNL     1     -16.948   4.173  10.732  0.00  0.00    +0.000 C 
ATOM     39  C   UNL     1     -17.609   1.776  11.233  0.00  0.00    +0.000 C 
BRANCH  36  40
ATOM     40  O   UNL     1     -16.483   6.559  10.785  0.00  0.00    +0.000 OA
ATOM     41  C   UNL     1     -16.913   7.906  10.640  0.00  0.00    +0.000 C 
ENDBRANCH  36  40
BRANCH  38  42
ATOM     42  O   UNL     1     -16.045   3.733   9.703  0.00  0.00    +0.000 OA
BRANCH  42  44
ATOM     43  O   UNL     1     -16.695   2.697   7.729  0.00  0.00    +0.000 OA
ATOM     44  C   UNL     1     -16.498   3.958   8.367  0.00  0.00    +0.000 C 
ATOM     45  C   UNL     1     -15.396   4.761   7.623  0.00  0.00    +0.000 C 
ATOM     46  C   UNL     1     -15.174   4.203   6.197  0.00  0.00    +0.000 C 
ATOM     47  C   UNL     1     -17.299   2.848   6.434  0.00  0.00    +0.000 C 
ATOM     48  C   UNL     1     -16.530   3.861   5.563  0.00  0.00    +0.000 C 
ATOM     49  C   UNL     1     -17.291   1.463   5.798  0.00  0.00    +0.000 C 
BRANCH  45  50
ATOM     50  O   UNL     1     -15.759   6.157   7.588  0.00  0.00    +0.000 OA
ATOM     51  H   UNL     1     -14.938   6.643   7.372  0.00  0.00    +0.000 HD
ENDBRANCH  45  50
BRANCH  46  52
ATOM     52  O   UNL     1     -14.522   5.135   5.312  0.00  0.00    +0.000 OA
ATOM     53  C   UNL     1     -13.840   4.500   4.237  0.00  0.00    +0.000 C 
ENDBRANCH  46  52
BRANCH  48  54
ATOM     54  O   UNL     1     -17.284   5.086   5.457  0.00  0.00    +0.000 OA
ATOM     55  H   UNL     1     -18.133   4.887   5.906  0.00  0.00    +0.000 HD
ENDBRANCH  48  54
ENDBRANCH  42  44
ENDBRANCH  38  42
ENDBRANCH  32  34
ENDBRANCH  20  32
TORSDOF 13
ENDMDL
