MODEL 1
REMARK VINA RESULT:      -5.8      0.000      0.000
REMARK  Name = ./IMPHY000007_3D.pdb
REMARK  7 active torsions:
REMARK  status: ('A' for Active; 'I' for Inactive)
REMARK    1  A    between atoms: O_1  and  C_14
REMARK    2  A    between atoms: O_1  and  C_22
REMARK    3  A    between atoms: O_2  and  C_12
REMARK    4  A    between atoms: O_3  and  C_20
REMARK    5  A    between atoms: O_3  and  C_23
REMARK    6  A    between atoms: O_4  and  C_21
REMARK    7  A    between atoms: O_4  and  C_24
REMARK                            x       y       z     vdW  Elec       q    Type
REMARK                         _______ _______ _______ _____ _____    ______ ____
ROOT
ATOM      1  N   UNL     1     -19.510   4.478   3.490  0.00  0.00    +0.000 NA
ATOM      2  C   UNL     1     -18.081   4.062   3.520  0.00  0.00    +0.000 C 
ATOM      3  C   UNL     1     -17.260   5.102   4.321  0.00  0.00    +0.000 C 
ATOM      4  C   UNL     1     -18.198   2.793   4.347  0.00  0.00    +0.000 C 
ATOM      5  C   UNL     1     -17.507   3.826   2.107  0.00  0.00    +0.000 A 
ATOM      6  C   UNL     1     -19.865   5.462   2.485  0.00  0.00    +0.000 C 
ATOM      7  C   UNL     1     -20.315   3.245   3.533  0.00  0.00    +0.000 C 
ATOM      8  C   UNL     1     -19.483   5.067   1.063  0.00  0.00    +0.000 C 
ATOM      9  C   UNL     1     -18.161   4.342   0.967  0.00  0.00    +0.000 A 
ATOM     10  C   UNL     1     -15.943   4.539   4.897  0.00  0.00    +0.000 C 
ATOM     11  C   UNL     1     -19.441   2.301   4.297  0.00  0.00    +0.000 C 
ATOM     12  C   UNL     1     -17.122   2.343   5.185  0.00  0.00    +0.000 C 
ATOM     13  C   UNL     1     -16.073   3.141   5.444  0.00  0.00    +0.000 C 
ATOM     14  C   UNL     1     -16.311   3.112   1.904  0.00  0.00    +0.000 A 
ATOM     15  C   UNL     1     -17.603   4.157  -0.313  0.00  0.00    +0.000 A 
ATOM     16  C   UNL     1     -15.770   2.930   0.629  0.00  0.00    +0.000 A 
ATOM     17  C   UNL     1     -16.413   3.457  -0.482  0.00  0.00    +0.000 A 
ENDROOT
BRANCH  10  18
ATOM     18  O   UNL     1     -15.504   5.394   5.952  0.00  0.00    +0.000 OA
ATOM     19  C   UNL     1     -16.582   5.776   6.792  0.00  0.00    +0.000 C 
ENDBRANCH  10  18
BRANCH   8  20
ATOM     20  O   UNL     1     -20.550   4.302   0.499  0.00  0.00    +0.000 OA
ATOM     21  H   UNL     1     -21.162   4.923   0.068  0.00  0.00    +0.000 HD
ENDBRANCH   8  20
BRANCH  16  22
ATOM     22  O   UNL     1     -14.601   2.242   0.492  0.00  0.00    +0.000 OA
ATOM     23  C   UNL     1     -13.418   2.870   0.984  0.00  0.00    +0.000 C 
ENDBRANCH  16  22
BRANCH  17  24
ATOM     24  O   UNL     1     -15.899   3.293  -1.729  0.00  0.00    +0.000 OA
ATOM     25  C   UNL     1     -16.423   2.221  -2.510  0.00  0.00    +0.000 C 
ENDBRANCH  17  24
TORSDOF 4
ENDMDL
MODEL 2
REMARK VINA RESULT:      -5.8      1.821      4.525
REMARK  Name = ./IMPHY000007_3D.pdb
REMARK  7 active torsions:
REMARK  status: ('A' for Active; 'I' for Inactive)
REMARK    1  A    between atoms: O_1  and  C_14
REMARK    2  A    between atoms: O_1  and  C_22
REMARK    3  A    between atoms: O_2  and  C_12
REMARK    4  A    between atoms: O_3  and  C_20
REMARK    5  A    between atoms: O_3  and  C_23
REMARK    6  A    between atoms: O_4  and  C_21
REMARK    7  A    between atoms: O_4  and  C_24
REMARK                            x       y       z     vdW  Elec       q    Type
REMARK                         _______ _______ _______ _____ _____    ______ ____
ROOT
ATOM      1  N   UNL     1     -16.397   4.163   5.556  0.00  0.00    +0.000 NA
ATOM      2  C   UNL     1     -16.880   3.772   4.203  0.00  0.00    +0.000 C 
ATOM      3  C   UNL     1     -17.724   2.479   4.313  0.00  0.00    +0.000 C 
ATOM      4  C   UNL     1     -17.810   4.937   3.914  0.00  0.00    +0.000 C 
ATOM      5  C   UNL     1     -15.729   3.635   3.184  0.00  0.00    +0.000 A 
ATOM      6  C   UNL     1     -15.206   3.482   6.027  0.00  0.00    +0.000 C 
ATOM      7  C   UNL     1     -16.386   5.636   5.597  0.00  0.00    +0.000 C 
ATOM      8  C   UNL     1     -14.015   3.579   5.080  0.00  0.00    +0.000 C 
ATOM      9  C   UNL     1     -14.392   3.505   3.618  0.00  0.00    +0.000 A 
ATOM     10  C   UNL     1     -18.716   2.286   3.146  0.00  0.00    +0.000 C 
ATOM     11  C   UNL     1     -17.486   6.004   4.653  0.00  0.00    +0.000 C 
ATOM     12  C   UNL     1     -18.969   4.781   3.079  0.00  0.00    +0.000 C 
ATOM     13  C   UNL     1     -19.395   3.561   2.715  0.00  0.00    +0.000 C 
ATOM     14  C   UNL     1     -15.968   3.613   1.796  0.00  0.00    +0.000 A 
ATOM     15  C   UNL     1     -13.356   3.336   2.679  0.00  0.00    +0.000 A 
ATOM     16  C   UNL     1     -14.932   3.450   0.874  0.00  0.00    +0.000 A 
ATOM     17  C   UNL     1     -13.624   3.307   1.315  0.00  0.00    +0.000 A 
ENDROOT
BRANCH  10  18
ATOM     18  O   UNL     1     -19.722   1.357   3.550  0.00  0.00    +0.000 OA
ATOM     19  C   UNL     1     -20.167   1.617   4.872  0.00  0.00    +0.000 C 
ENDBRANCH  10  18
BRANCH   8  20
ATOM     20  O   UNL     1     -13.289   4.774   5.380  0.00  0.00    +0.000 OA
ATOM     21  H   UNL     1     -12.895   5.095   4.551  0.00  0.00    +0.000 HD
ENDBRANCH   8  20
BRANCH  16  22
ATOM     22  O   UNL     1     -15.222   3.422  -0.457  0.00  0.00    +0.000 OA
ATOM     23  C   UNL     1     -16.446   2.798  -0.841  0.00  0.00    +0.000 C 
ENDBRANCH  16  22
BRANCH  17  24
ATOM     24  O   UNL     1     -12.603   3.143   0.432  0.00  0.00    +0.000 OA
ATOM     25  C   UNL     1     -11.363   2.673   0.956  0.00  0.00    +0.000 C 
ENDBRANCH  17  24
TORSDOF 4
ENDMDL
MODEL 3
REMARK VINA RESULT:      -5.6      2.092      4.406
REMARK  Name = ./IMPHY000007_3D.pdb
REMARK  7 active torsions:
REMARK  status: ('A' for Active; 'I' for Inactive)
REMARK    1  A    between atoms: O_1  and  C_14
REMARK    2  A    between atoms: O_1  and  C_22
REMARK    3  A    between atoms: O_2  and  C_12
REMARK    4  A    between atoms: O_3  and  C_20
REMARK    5  A    between atoms: O_3  and  C_23
REMARK    6  A    between atoms: O_4  and  C_21
REMARK    7  A    between atoms: O_4  and  C_24
REMARK                            x       y       z     vdW  Elec       q    Type
REMARK                         _______ _______ _______ _____ _____    ______ ____
ROOT
ATOM      1  N   UNL     1     -14.158   2.713   3.330  0.00  0.00    +0.000 NA
ATOM      2  C   UNL     1     -15.547   3.130   3.669  0.00  0.00    +0.000 C 
ATOM      3  C   UNL     1     -16.265   1.972   4.403  0.00  0.00    +0.000 C 
ATOM      4  C   UNL     1     -15.249   4.231   4.672  0.00  0.00    +0.000 C 
ATOM      5  C   UNL     1     -16.332   3.618   2.434  0.00  0.00    +0.000 A 
ATOM      6  C   UNL     1     -14.008   1.919   2.125  0.00  0.00    +0.000 C 
ATOM      7  C   UNL     1     -13.310   3.912   3.452  0.00  0.00    +0.000 C 
ATOM      8  C   UNL     1     -14.601   2.563   0.876  0.00  0.00    +0.000 C 
ATOM      9  C   UNL     1     -15.892   3.306   1.129  0.00  0.00    +0.000 A 
ATOM     10  C   UNL     1     -17.449   2.435   5.279  0.00  0.00    +0.000 C 
ATOM     11  C   UNL     1     -14.012   4.713   4.502  0.00  0.00    +0.000 C 
ATOM     12  C   UNL     1     -16.157   4.535   5.743  0.00  0.00    +0.000 C 
ATOM     13  C   UNL     1     -17.179   3.714   6.030  0.00  0.00    +0.000 C 
ATOM     14  C   UNL     1     -17.518   4.367   2.559  0.00  0.00    +0.000 A 
ATOM     15  C   UNL     1     -16.642   3.719   0.011  0.00  0.00    +0.000 A 
ATOM     16  C   UNL     1     -18.251   4.776   1.443  0.00  0.00    +0.000 A 
ATOM     17  C   UNL     1     -17.816   4.449   0.167  0.00  0.00    +0.000 A 
ENDROOT
BRANCH  10  18
ATOM     18  O   UNL     1     -17.744   1.410   6.228  0.00  0.00    +0.000 OA
ATOM     19  C   UNL     1     -16.558   0.842   6.761  0.00  0.00    +0.000 C 
ENDBRANCH  10  18
BRANCH   8  20
ATOM     20  O   UNL     1     -13.611   3.407   0.284  0.00  0.00    +0.000 OA
ATOM     21  H   UNL     1     -12.820   3.375   0.850  0.00  0.00    +0.000 HD
ENDBRANCH   8  20
BRANCH  16  22
ATOM     22  O   UNL     1     -19.399   5.487   1.624  0.00  0.00    +0.000 OA
ATOM     23  C   UNL     1     -20.585   4.745   1.902  0.00  0.00    +0.000 C 
ENDBRANCH  16  22
BRANCH  17  24
ATOM     24  O   UNL     1     -18.519   4.835  -0.931  0.00  0.00    +0.000 OA
ATOM     25  C   UNL     1     -18.508   3.952  -2.051  0.00  0.00    +0.000 C 
ENDBRANCH  17  24
TORSDOF 4
ENDMDL
MODEL 4
REMARK VINA RESULT:      -5.4     11.935     14.823
REMARK  Name = ./IMPHY000007_3D.pdb
REMARK  7 active torsions:
REMARK  status: ('A' for Active; 'I' for Inactive)
REMARK    1  A    between atoms: O_1  and  C_14
REMARK    2  A    between atoms: O_1  and  C_22
REMARK    3  A    between atoms: O_2  and  C_12
REMARK    4  A    between atoms: O_3  and  C_20
REMARK    5  A    between atoms: O_3  and  C_23
REMARK    6  A    between atoms: O_4  and  C_21
REMARK    7  A    between atoms: O_4  and  C_24
REMARK                            x       y       z     vdW  Elec       q    Type
REMARK                         _______ _______ _______ _____ _____    ______ ____
ROOT
ATOM      1  N   UNL     1     -27.930  10.481   7.296  0.00  0.00    +0.000 NA
ATOM      2  C   UNL     1     -27.855  11.120   8.639  0.00  0.00    +0.000 C 
ATOM      3  C   UNL     1     -27.311  12.563   8.491  0.00  0.00    +0.000 C 
ATOM      4  C   UNL     1     -29.335  11.191   8.974  0.00  0.00    +0.000 C 
ATOM      5  C   UNL     1     -27.035  10.285   9.643  0.00  0.00    +0.000 A 
ATOM      6  C   UNL     1     -26.693   9.913   6.793  0.00  0.00    +0.000 C 
ATOM      7  C   UNL     1     -29.114   9.605   7.304  0.00  0.00    +0.000 C 
ATOM      8  C   UNL     1     -26.041   8.906   7.733  0.00  0.00    +0.000 C 
ATOM      9  C   UNL     1     -26.156   9.274   9.195  0.00  0.00    +0.000 A 
ATOM     10  C   UNL     1     -27.703  13.493   9.659  0.00  0.00    +0.000 C 
ATOM     11  C   UNL     1     -30.030  10.291   8.269  0.00  0.00    +0.000 C 
ATOM     12  C   UNL     1     -29.865  12.230   9.812  0.00  0.00    +0.000 C 
ATOM     13  C   UNL     1     -29.119  13.297  10.138  0.00  0.00    +0.000 C 
ATOM     14  C   UNL     1     -27.113  10.509  11.031  0.00  0.00    +0.000 A 
ATOM     15  C   UNL     1     -25.380   8.549  10.119  0.00  0.00    +0.000 A 
ATOM     16  C   UNL     1     -26.343   9.780  11.939  0.00  0.00    +0.000 A 
ATOM     17  C   UNL     1     -25.471   8.801  11.484  0.00  0.00    +0.000 A 
ENDROOT
BRANCH  10  18
ATOM     18  O   UNL     1     -27.557  14.848   9.233  0.00  0.00    +0.000 OA
ATOM     19  C   UNL     1     -28.249  15.085   8.017  0.00  0.00    +0.000 C 
ENDBRANCH  10  18
BRANCH   8  20
ATOM     20  O   UNL     1     -26.588   7.613   7.468  0.00  0.00    +0.000 OA
ATOM     21  H   UNL     1     -26.890   7.605   6.544  0.00  0.00    +0.000 HD
ENDBRANCH   8  20
BRANCH  16  22
ATOM     22  O   UNL     1     -26.449  10.049  13.271  0.00  0.00    +0.000 OA
ATOM     23  C   UNL     1     -25.869  11.267  13.735  0.00  0.00    +0.000 C 
ENDBRANCH  16  22
BRANCH  17  24
ATOM     24  O   UNL     1     -24.710   8.084  12.352  0.00  0.00    +0.000 OA
ATOM     25  C   UNL     1     -23.369   8.526  12.556  0.00  0.00    +0.000 C 
ENDBRANCH  17  24
TORSDOF 4
ENDMDL
MODEL 5
REMARK VINA RESULT:      -5.3     12.393     15.033
REMARK  Name = ./IMPHY000007_3D.pdb
REMARK  7 active torsions:
REMARK  status: ('A' for Active; 'I' for Inactive)
REMARK    1  A    between atoms: O_1  and  C_14
REMARK    2  A    between atoms: O_1  and  C_22
REMARK    3  A    between atoms: O_2  and  C_12
REMARK    4  A    between atoms: O_3  and  C_20
REMARK    5  A    between atoms: O_3  and  C_23
REMARK    6  A    between atoms: O_4  and  C_21
REMARK    7  A    between atoms: O_4  and  C_24
REMARK                            x       y       z     vdW  Elec       q    Type
REMARK                         _______ _______ _______ _____ _____    ______ ____
ROOT
ATOM      1  N   UNL     1     -26.820   8.322   9.095  0.00  0.00    +0.000 NA
ATOM      2  C   UNL     1     -27.273   9.288  10.134  0.00  0.00    +0.000 C 
ATOM      3  C   UNL     1     -28.660   8.854  10.668  0.00  0.00    +0.000 C 
ATOM      4  C   UNL     1     -26.233   9.019  11.208  0.00  0.00    +0.000 C 
ATOM      5  C   UNL     1     -27.270  10.744   9.625  0.00  0.00    +0.000 A 
ATOM      6  C   UNL     1     -27.347   8.532   7.760  0.00  0.00    +0.000 C 
ATOM      7  C   UNL     1     -25.357   8.207   9.227  0.00  0.00    +0.000 C 
ATOM      8  C   UNL     1     -27.106   9.932   7.207  0.00  0.00    +0.000 C 
ATOM      9  C   UNL     1     -27.232  11.026   8.242  0.00  0.00    +0.000 A 
ATOM     10  C   UNL     1     -28.978   9.398  12.078  0.00  0.00    +0.000 C 
ATOM     11  C   UNL     1     -25.131   8.472  10.682  0.00  0.00    +0.000 C 
ATOM     12  C   UNL     1     -26.533   9.190  12.602  0.00  0.00    +0.000 C 
ATOM     13  C   UNL     1     -27.798   9.369  13.015  0.00  0.00    +0.000 C 
ATOM     14  C   UNL     1     -27.327  11.838  10.510  0.00  0.00    +0.000 A 
ATOM     15  C   UNL     1     -27.275  12.358   7.789  0.00  0.00    +0.000 A 
ATOM     16  C   UNL     1     -27.363  13.156  10.050  0.00  0.00    +0.000 A 
ATOM     17  C   UNL     1     -27.343  13.418   8.687  0.00  0.00    +0.000 A 
ENDROOT
BRANCH  10  18
ATOM     18  O   UNL     1     -30.023   8.610  12.647  0.00  0.00    +0.000 OA
ATOM     19  C   UNL     1     -29.805   7.225  12.426  0.00  0.00    +0.000 C 
ENDBRANCH  10  18
BRANCH   8  20
ATOM     20  O   UNL     1     -25.830   9.956   6.563  0.00  0.00    +0.000 OA
ATOM     21  H   UNL     1     -25.803  10.742   5.992  0.00  0.00    +0.000 HD
ENDBRANCH   8  20
BRANCH  16  22
ATOM     22  O   UNL     1     -27.432  14.176  10.951  0.00  0.00    +0.000 OA
ATOM     23  C   UNL     1     -28.718  14.481  11.488  0.00  0.00    +0.000 C 
ENDBRANCH  16  22
BRANCH  17  24
ATOM     24  O   UNL     1     -27.382  14.694   8.221  0.00  0.00    +0.000 OA
ATOM     25  C   UNL     1     -28.641  15.174   7.752  0.00  0.00    +0.000 C 
ENDBRANCH  17  24
TORSDOF 4
ENDMDL
MODEL 6
REMARK VINA RESULT:      -4.9      2.848      4.281
REMARK  Name = ./IMPHY000007_3D.pdb
REMARK  7 active torsions:
REMARK  status: ('A' for Active; 'I' for Inactive)
REMARK    1  A    between atoms: O_1  and  C_14
REMARK    2  A    between atoms: O_1  and  C_22
REMARK    3  A    between atoms: O_2  and  C_12
REMARK    4  A    between atoms: O_3  and  C_20
REMARK    5  A    between atoms: O_3  and  C_23
REMARK    6  A    between atoms: O_4  and  C_21
REMARK    7  A    between atoms: O_4  and  C_24
REMARK                            x       y       z     vdW  Elec       q    Type
REMARK                         _______ _______ _______ _____ _____    ______ ____
ROOT
ATOM      1  N   UNL     1     -17.488   4.756  -0.037  0.00  0.00    +0.000 NA
ATOM      2  C   UNL     1     -17.651   3.928   1.190  0.00  0.00    +0.000 C 
ATOM      3  C   UNL     1     -16.256   3.604   1.779  0.00  0.00    +0.000 C 
ATOM      4  C   UNL     1     -18.338   4.937   2.094  0.00  0.00    +0.000 C 
ATOM      5  C   UNL     1     -18.490   2.658   0.935  0.00  0.00    +0.000 A 
ATOM      6  C   UNL     1     -17.193   4.032  -1.258  0.00  0.00    +0.000 C 
ATOM      7  C   UNL     1     -18.623   5.695  -0.073  0.00  0.00    +0.000 C 
ATOM      8  C   UNL     1     -18.196   2.932  -1.589  0.00  0.00    +0.000 C 
ATOM      9  C   UNL     1     -18.700   2.183  -0.377  0.00  0.00    +0.000 A 
ATOM     10  C   UNL     1     -16.285   3.262   3.284  0.00  0.00    +0.000 C 
ATOM     11  C   UNL     1     -18.939   5.893   1.376  0.00  0.00    +0.000 C 
ATOM     12  C   UNL     1     -18.169   4.903   3.520  0.00  0.00    +0.000 C 
ATOM     13  C   UNL     1     -17.225   4.130   4.081  0.00  0.00    +0.000 C 
ATOM     14  C   UNL     1     -19.053   1.919   1.993  0.00  0.00    +0.000 A 
ATOM     15  C   UNL     1     -19.431   0.998  -0.593  0.00  0.00    +0.000 A 
ATOM     16  C   UNL     1     -19.780   0.748   1.767  0.00  0.00    +0.000 A 
ATOM     17  C   UNL     1     -19.966   0.283   0.473  0.00  0.00    +0.000 A 
ENDROOT
BRANCH  10  18
ATOM     18  O   UNL     1     -14.969   3.422   3.814  0.00  0.00    +0.000 OA
ATOM     19  C   UNL     1     -14.997   4.040   5.091  0.00  0.00    +0.000 C 
ENDBRANCH  10  18
BRANCH   8  20
ATOM     20  O   UNL     1     -19.267   3.503  -2.344  0.00  0.00    +0.000 OA
ATOM     21  H   UNL     1     -18.911   3.762  -3.211  0.00  0.00    +0.000 HD
ENDBRANCH   8  20
BRANCH  16  22
ATOM     22  O   UNL     1     -20.291   0.065   2.830  0.00  0.00    +0.000 OA
ATOM     23  C   UNL     1     -21.343   0.693   3.560  0.00  0.00    +0.000 C 
ENDBRANCH  16  22
BRANCH  17  24
ATOM     24  O   UNL     1     -20.666  -0.857   0.234  0.00  0.00    +0.000 OA
ATOM     25  C   UNL     1     -20.599  -1.394  -1.085  0.00  0.00    +0.000 C 
ENDBRANCH  17  24
TORSDOF 4
ENDMDL
MODEL 7
REMARK VINA RESULT:      -4.9     11.566     14.602
REMARK  Name = ./IMPHY000007_3D.pdb
REMARK  7 active torsions:
REMARK  status: ('A' for Active; 'I' for Inactive)
REMARK    1  A    between atoms: O_1  and  C_14
REMARK    2  A    between atoms: O_1  and  C_22
REMARK    3  A    between atoms: O_2  and  C_12
REMARK    4  A    between atoms: O_3  and  C_20
REMARK    5  A    between atoms: O_3  and  C_23
REMARK    6  A    between atoms: O_4  and  C_21
REMARK    7  A    between atoms: O_4  and  C_24
REMARK                            x       y       z     vdW  Elec       q    Type
REMARK                         _______ _______ _______ _____ _____    ______ ____
ROOT
ATOM      1  N   UNL     1     -28.401  11.801  10.390  0.00  0.00    +0.000 NA
ATOM      2  C   UNL     1     -27.904  10.594   9.675  0.00  0.00    +0.000 C 
ATOM      3  C   UNL     1     -29.082   9.617   9.437  0.00  0.00    +0.000 C 
ATOM      4  C   UNL     1     -27.518  11.221   8.347  0.00  0.00    +0.000 C 
ATOM      5  C   UNL     1     -26.723   9.921  10.405  0.00  0.00    +0.000 A 
ATOM      6  C   UNL     1     -28.527  11.679  11.831  0.00  0.00    +0.000 C 
ATOM      7  C   UNL     1     -27.629  12.948   9.881  0.00  0.00    +0.000 C 
ATOM      8  C   UNL     1     -27.250  11.234  12.534  0.00  0.00    +0.000 C 
ATOM      9  C   UNL     1     -26.456  10.205  11.762  0.00  0.00    +0.000 A 
ATOM     10  C   UNL     1     -28.849   8.641   8.264  0.00  0.00    +0.000 C 
ATOM     11  C   UNL     1     -27.299  12.534   8.482  0.00  0.00    +0.000 C 
ATOM     12  C   UNL     1     -27.575  10.475   7.120  0.00  0.00    +0.000 C 
ATOM     13  C   UNL     1     -28.185   9.280   7.071  0.00  0.00    +0.000 C 
ATOM     14  C   UNL     1     -25.886   8.991   9.759  0.00  0.00    +0.000 A 
ATOM     15  C   UNL     1     -25.402   9.552  12.429  0.00  0.00    +0.000 A 
ATOM     16  C   UNL     1     -24.840   8.352  10.429  0.00  0.00    +0.000 A 
ATOM     17  C   UNL     1     -24.600   8.628  11.767  0.00  0.00    +0.000 A 
ENDROOT
BRANCH  10  18
ATOM     18  O   UNL     1     -30.110   8.117   7.848  0.00  0.00    +0.000 OA
ATOM     19  C   UNL     1     -31.012   9.156   7.500  0.00  0.00    +0.000 C 
ENDBRANCH  10  18
BRANCH   8  20
ATOM     20  O   UNL     1     -26.467  12.392  12.834  0.00  0.00    +0.000 OA
ATOM     21  H   UNL     1     -25.532  12.152  12.720  0.00  0.00    +0.000 HD
ENDBRANCH   8  20
BRANCH  16  22
ATOM     22  O   UNL     1     -24.071   7.450   9.757  0.00  0.00    +0.000 OA
ATOM     23  C   UNL     1     -24.632   6.158   9.534  0.00  0.00    +0.000 C 
ENDBRANCH  16  22
BRANCH  17  24
ATOM     24  O   UNL     1     -23.590   8.013  12.436  0.00  0.00    +0.000 OA
ATOM     25  C   UNL     1     -22.977   8.743  13.498  0.00  0.00    +0.000 C 
ENDBRANCH  17  24
TORSDOF 4
ENDMDL
MODEL 8
REMARK VINA RESULT:      -4.8      2.956      5.253
REMARK  Name = ./IMPHY000007_3D.pdb
REMARK  7 active torsions:
REMARK  status: ('A' for Active; 'I' for Inactive)
REMARK    1  A    between atoms: O_1  and  C_14
REMARK    2  A    between atoms: O_1  and  C_22
REMARK    3  A    between atoms: O_2  and  C_12
REMARK    4  A    between atoms: O_3  and  C_20
REMARK    5  A    between atoms: O_3  and  C_23
REMARK    6  A    between atoms: O_4  and  C_21
REMARK    7  A    between atoms: O_4  and  C_24
REMARK                            x       y       z     vdW  Elec       q    Type
REMARK                         _______ _______ _______ _____ _____    ______ ____
ROOT
ATOM      1  N   UNL     1     -17.480   2.973   0.015  0.00  0.00    +0.000 NA
ATOM      2  C   UNL     1     -18.197   2.988   1.320  0.00  0.00    +0.000 C 
ATOM      3  C   UNL     1     -17.232   2.528   2.441  0.00  0.00    +0.000 C 
ATOM      4  C   UNL     1     -18.434   4.481   1.467  0.00  0.00    +0.000 C 
ATOM      5  C   UNL     1     -19.496   2.157   1.288  0.00  0.00    +0.000 A 
ATOM      6  C   UNL     1     -17.399   1.686  -0.650  0.00  0.00    +0.000 C 
ATOM      7  C   UNL     1     -18.004   4.101  -0.774  0.00  0.00    +0.000 C 
ATOM      8  C   UNL     1     -18.747   1.010  -0.870  0.00  0.00    +0.000 C 
ATOM      9  C   UNL     1     -19.719   1.203   0.272  0.00  0.00    +0.000 A 
ATOM     10  C   UNL     1     -17.638   3.019   3.847  0.00  0.00    +0.000 C 
ATOM     11  C   UNL     1     -18.391   5.093   0.278  0.00  0.00    +0.000 C 
ATOM     12  C   UNL     1     -18.510   5.104   2.759  0.00  0.00    +0.000 C 
ATOM     13  C   UNL     1     -18.147   4.437   3.866  0.00  0.00    +0.000 C 
ATOM     14  C   UNL     1     -20.492   2.302   2.273  0.00  0.00    +0.000 A 
ATOM     15  C   UNL     1     -20.889   0.420   0.279  0.00  0.00    +0.000 A 
ATOM     16  C   UNL     1     -21.652   1.524   2.267  0.00  0.00    +0.000 A 
ATOM     17  C   UNL     1     -21.850   0.578   1.272  0.00  0.00    +0.000 A 
ENDROOT
BRANCH  10  18
ATOM     18  O   UNL     1     -16.500   2.939   4.705  0.00  0.00    +0.000 OA
ATOM     19  C   UNL     1     -15.475   3.828   4.288  0.00  0.00    +0.000 C 
ENDBRANCH  10  18
BRANCH   8  20
ATOM     20  O   UNL     1     -19.290   1.467  -2.111  0.00  0.00    +0.000 OA
ATOM     21  H   UNL     1     -20.220   1.186  -2.146  0.00  0.00    +0.000 HD
ENDBRANCH   8  20
BRANCH  16  22
ATOM     22  O   UNL     1     -22.576   1.697   3.254  0.00  0.00    +0.000 OA
ATOM     23  C   UNL     1     -22.596   2.963   3.910  0.00  0.00    +0.000 C 
ENDBRANCH  16  22
BRANCH  17  24
ATOM     24  O   UNL     1     -22.970  -0.191   1.253  0.00  0.00    +0.000 OA
ATOM     25  C   UNL     1     -24.028   0.226   0.391  0.00  0.00    +0.000 C 
ENDBRANCH  17  24
TORSDOF 4
ENDMDL
MODEL 9
REMARK VINA RESULT:      -4.7     13.351     15.881
REMARK  Name = ./IMPHY000007_3D.pdb
REMARK  7 active torsions:
REMARK  status: ('A' for Active; 'I' for Inactive)
REMARK    1  A    between atoms: O_1  and  C_14
REMARK    2  A    between atoms: O_1  and  C_22
REMARK    3  A    between atoms: O_2  and  C_12
REMARK    4  A    between atoms: O_3  and  C_20
REMARK    5  A    between atoms: O_3  and  C_23
REMARK    6  A    between atoms: O_4  and  C_21
REMARK    7  A    between atoms: O_4  and  C_24
REMARK                            x       y       z     vdW  Elec       q    Type
REMARK                         _______ _______ _______ _____ _____    ______ ____
ROOT
ATOM      1  N   UNL     1     -27.462  11.819  13.959  0.00  0.00    +0.000 NA
ATOM      2  C   UNL     1     -27.124  11.079  12.711  0.00  0.00    +0.000 C 
ATOM      3  C   UNL     1     -25.691  10.503  12.829  0.00  0.00    +0.000 C 
ATOM      4  C   UNL     1     -28.118   9.935  12.812  0.00  0.00    +0.000 C 
ATOM      5  C   UNL     1     -27.306  11.944  11.447  0.00  0.00    +0.000 A 
ATOM      6  C   UNL     1     -26.972  13.182  14.042  0.00  0.00    +0.000 C 
ATOM      7  C   UNL     1     -28.899  11.609  14.205  0.00  0.00    +0.000 C 
ATOM      8  C   UNL     1     -27.383  14.066  12.870  0.00  0.00    +0.000 C 
ATOM      9  C   UNL     1     -27.385  13.351  11.539  0.00  0.00    +0.000 A 
ATOM     10  C   UNL     1     -25.434   9.293  11.906  0.00  0.00    +0.000 C 
ATOM     11  C   UNL     1     -29.148  10.263  13.601  0.00  0.00    +0.000 C 
ATOM     12  C   UNL     1     -27.833   8.643  12.253  0.00  0.00    +0.000 C 
ATOM     13  C   UNL     1     -26.597   8.336  11.828  0.00  0.00    +0.000 C 
ATOM     14  C   UNL     1     -27.378  11.371  10.162  0.00  0.00    +0.000 A 
ATOM     15  C   UNL     1     -27.507  14.131  10.373  0.00  0.00    +0.000 A 
ATOM     16  C   UNL     1     -27.504  12.154   9.013  0.00  0.00    +0.000 A 
ATOM     17  C   UNL     1     -27.564  13.537   9.116  0.00  0.00    +0.000 A 
ENDROOT
BRANCH  10  18
ATOM     18  O   UNL     1     -24.298   8.580  12.394  0.00  0.00    +0.000 OA
ATOM     19  C   UNL     1     -23.314   9.463  12.907  0.00  0.00    +0.000 C 
ENDBRANCH  10  18
BRANCH   8  20
ATOM     20  O   UNL     1     -28.656  14.647  13.161  0.00  0.00    +0.000 OA
ATOM     21  H   UNL     1     -29.140  14.025  13.731  0.00  0.00    +0.000 HD
ENDBRANCH   8  20
BRANCH  16  22
ATOM     22  O   UNL     1     -27.555  11.547   7.794  0.00  0.00    +0.000 OA
ATOM     23  C   UNL     1     -26.809  10.341   7.639  0.00  0.00    +0.000 C 
ENDBRANCH  16  22
BRANCH  17  24
ATOM     24  O   UNL     1     -27.682  14.315   8.009  0.00  0.00    +0.000 OA
ATOM     25  C   UNL     1     -28.395  15.543   8.152  0.00  0.00    +0.000 C 
ENDBRANCH  17  24
TORSDOF 4
ENDMDL
