MODEL 1
REMARK VINA RESULT:      -6.1      0.000      0.000
REMARK  Name = ./IMPHY000001_3D.pdb
REMARK  10 active torsions:
REMARK  status: ('A' for Active; 'I' for Inactive)
REMARK    1  A    between atoms: O_3  and  C_19
REMARK    2  A    between atoms: O_3  and  C_25
REMARK    3  A    between atoms: O_4  and  C_20
REMARK    4  A    between atoms: O_4  and  C_26
REMARK    5  A    between atoms: O_5  and  C_23
REMARK    6  A    between atoms: O_6  and  C_24
REMARK    7  A    between atoms: C_7  and  C_10
REMARK    8  A    between atoms: C_8  and  C_11
REMARK    9  A    between atoms: C_10  and  C_13
REMARK   10  A    between atoms: C_11  and  C_14
REMARK                            x       y       z     vdW  Elec       q    Type
REMARK                         _______ _______ _______ _____ _____    ______ ____
ROOT
ATOM      1  O   UNL     1     -13.728   2.558   0.243  0.00  0.00    +0.000 OA
ATOM      2  O   UNL     1     -13.300   4.671   1.018  0.00  0.00    +0.000 OA
ATOM      3  C   UNL     1     -15.816   2.190   1.245  0.00  0.00    +0.000 C 
ATOM      4  C   UNL     1     -15.165   3.396   1.914  0.00  0.00    +0.000 C 
ATOM      5  C   UNL     1     -14.637   1.504   0.583  0.00  0.00    +0.000 C 
ATOM      6  C   UNL     1     -13.974   3.652   1.026  0.00  0.00    +0.000 C 
ENDROOT
BRANCH   3   7
ATOM      7  C   UNL     1     -16.851   2.626   0.204  0.00  0.00    +0.000 C 
BRANCH   7   8
ATOM      8  C   UNL     1     -17.915   3.509   0.804  0.00  0.00    +0.000 A 
ATOM      9  C   UNL     1     -18.873   2.953   1.637  0.00  0.00    +0.000 A 
ATOM     10  C   UNL     1     -17.918   4.865   0.512  0.00  0.00    +0.000 A 
ATOM     11  C   UNL     1     -19.858   3.770   2.191  0.00  0.00    +0.000 A 
ATOM     12  C   UNL     1     -18.903   5.683   1.066  0.00  0.00    +0.000 A 
ATOM     13  C   UNL     1     -19.873   5.135   1.907  0.00  0.00    +0.000 A 
BRANCH  11  14
ATOM     14  O   UNL     1     -20.801   3.224   3.009  0.00  0.00    +0.000 OA
ATOM     15  C   UNL     1     -20.334   2.534   4.166  0.00  0.00    +0.000 C 
ENDBRANCH  11  14
BRANCH  13  16
ATOM     16  O   UNL     1     -20.829   5.945   2.442  0.00  0.00    +0.000 OA
ATOM     17  H   UNL     1     -21.663   5.446   2.483  0.00  0.00    +0.000 HD
ENDBRANCH  13  16
ENDBRANCH   7   8
ENDBRANCH   3   7
BRANCH   4  18
ATOM     18  C   UNL     1     -14.697   3.109   3.334  0.00  0.00    +0.000 C 
BRANCH  18  19
ATOM     19  C   UNL     1     -15.374   4.002   4.341  0.00  0.00    +0.000 A 
ATOM     20  C   UNL     1     -14.649   4.482   5.422  0.00  0.00    +0.000 A 
ATOM     21  C   UNL     1     -16.711   4.330   4.173  0.00  0.00    +0.000 A 
ATOM     22  C   UNL     1     -15.275   5.308   6.355  0.00  0.00    +0.000 A 
ATOM     23  C   UNL     1     -17.337   5.156   5.106  0.00  0.00    +0.000 A 
ATOM     24  C   UNL     1     -16.620   5.645   6.197  0.00  0.00    +0.000 A 
BRANCH  22  25
ATOM     25  O   UNL     1     -14.564   5.778   7.417  0.00  0.00    +0.000 OA
ATOM     26  C   UNL     1     -13.671   4.867   8.054  0.00  0.00    +0.000 C 
ENDBRANCH  22  25
BRANCH  24  27
ATOM     27  O   UNL     1     -17.241   6.451   7.101  0.00  0.00    +0.000 OA
ATOM     28  H   UNL     1     -16.877   6.266   7.984  0.00  0.00    +0.000 HD
ENDBRANCH  24  27
ENDBRANCH  18  19
ENDBRANCH   4  18
TORSDOF 8
ENDMDL
MODEL 2
REMARK VINA RESULT:      -5.7      1.188      4.884
REMARK  Name = ./IMPHY000001_3D.pdb
REMARK  10 active torsions:
REMARK  status: ('A' for Active; 'I' for Inactive)
REMARK    1  A    between atoms: O_3  and  C_19
REMARK    2  A    between atoms: O_3  and  C_25
REMARK    3  A    between atoms: O_4  and  C_20
REMARK    4  A    between atoms: O_4  and  C_26
REMARK    5  A    between atoms: O_5  and  C_23
REMARK    6  A    between atoms: O_6  and  C_24
REMARK    7  A    between atoms: C_7  and  C_10
REMARK    8  A    between atoms: C_8  and  C_11
REMARK    9  A    between atoms: C_10  and  C_13
REMARK   10  A    between atoms: C_11  and  C_14
REMARK                            x       y       z     vdW  Elec       q    Type
REMARK                         _______ _______ _______ _____ _____    ______ ____
ROOT
ATOM      1  O   UNL     1     -20.686   4.424   2.483  0.00  0.00    +0.000 OA
ATOM      2  O   UNL     1     -20.006   2.957   4.106  0.00  0.00    +0.000 OA
ATOM      3  C   UNL     1     -18.594   5.127   1.691  0.00  0.00    +0.000 C 
ATOM      4  C   UNL     1     -18.391   4.416   3.025  0.00  0.00    +0.000 C 
ATOM      5  C   UNL     1     -20.070   5.469   1.721  0.00  0.00    +0.000 C 
ATOM      6  C   UNL     1     -19.753   3.825   3.284  0.00  0.00    +0.000 C 
ENDROOT
BRANCH   3   7
ATOM      7  C   UNL     1     -18.270   4.201   0.515  0.00  0.00    +0.000 C 
BRANCH   7   8
ATOM      8  C   UNL     1     -17.014   3.404   0.756  0.00  0.00    +0.000 A 
ATOM      9  C   UNL     1     -15.779   4.018   0.618  0.00  0.00    +0.000 A 
ATOM     10  C   UNL     1     -17.113   2.067   1.113  0.00  0.00    +0.000 A 
ATOM     11  C   UNL     1     -14.617   3.280   0.840  0.00  0.00    +0.000 A 
ATOM     12  C   UNL     1     -15.951   1.329   1.335  0.00  0.00    +0.000 A 
ATOM     13  C   UNL     1     -14.702   1.936   1.199  0.00  0.00    +0.000 A 
BRANCH  11  14
ATOM     14  O   UNL     1     -13.403   3.884   0.702  0.00  0.00    +0.000 OA
ATOM     15  C   UNL     1     -12.883   4.562   1.843  0.00  0.00    +0.000 C 
ENDBRANCH  11  14
BRANCH  13  16
ATOM     16  O   UNL     1     -13.575   1.204   1.419  0.00  0.00    +0.000 OA
ATOM     17  H   UNL     1     -13.834   0.355   1.817  0.00  0.00    +0.000 HD
ENDBRANCH  13  16
ENDBRANCH   7   8
ENDBRANCH   3   7
BRANCH   4  18
ATOM     18  C   UNL     1     -18.019   5.366   4.155  0.00  0.00    +0.000 C 
BRANCH  18  19
ATOM     19  C   UNL     1     -16.678   5.029   4.754  0.00  0.00    +0.000 A 
ATOM     20  C   UNL     1     -16.201   5.778   5.821  0.00  0.00    +0.000 A 
ATOM     21  C   UNL     1     -15.941   3.978   4.231  0.00  0.00    +0.000 A 
ATOM     22  C   UNL     1     -14.960   5.467   6.376  0.00  0.00    +0.000 A 
ATOM     23  C   UNL     1     -14.700   3.667   4.786  0.00  0.00    +0.000 A 
ATOM     24  C   UNL     1     -14.209   4.412   5.858  0.00  0.00    +0.000 A 
BRANCH  22  25
ATOM     25  O   UNL     1     -14.491   6.203   7.421  0.00  0.00    +0.000 OA
ATOM     26  C   UNL     1     -15.005   5.893   8.715  0.00  0.00    +0.000 C 
ENDBRANCH  22  25
BRANCH  24  27
ATOM     27  O   UNL     1     -12.997   4.099   6.392  0.00  0.00    +0.000 OA
ATOM     28  H   UNL     1     -13.121   3.867   7.329  0.00  0.00    +0.000 HD
ENDBRANCH  24  27
ENDBRANCH  18  19
ENDBRANCH   4  18
TORSDOF 8
ENDMDL
MODEL 3
REMARK VINA RESULT:      -5.7      0.580      5.229
REMARK  Name = ./IMPHY000001_3D.pdb
REMARK  10 active torsions:
REMARK  status: ('A' for Active; 'I' for Inactive)
REMARK    1  A    between atoms: O_3  and  C_19
REMARK    2  A    between atoms: O_3  and  C_25
REMARK    3  A    between atoms: O_4  and  C_20
REMARK    4  A    between atoms: O_4  and  C_26
REMARK    5  A    between atoms: O_5  and  C_23
REMARK    6  A    between atoms: O_6  and  C_24
REMARK    7  A    between atoms: C_7  and  C_10
REMARK    8  A    between atoms: C_8  and  C_11
REMARK    9  A    between atoms: C_10  and  C_13
REMARK   10  A    between atoms: C_11  and  C_14
REMARK                            x       y       z     vdW  Elec       q    Type
REMARK                         _______ _______ _______ _____ _____    ______ ____
ROOT
ATOM      1  O   UNL     1     -13.063   2.808   0.637  0.00  0.00    +0.000 OA
ATOM      2  O   UNL     1     -14.061   0.803   0.152  0.00  0.00    +0.000 OA
ATOM      3  C   UNL     1     -14.723   3.750   1.999  0.00  0.00    +0.000 C 
ATOM      4  C   UNL     1     -15.323   2.558   1.260  0.00  0.00    +0.000 C 
ATOM      5  C   UNL     1     -13.493   4.065   1.170  0.00  0.00    +0.000 C 
ATOM      6  C   UNL     1     -14.109   1.927   0.629  0.00  0.00    +0.000 C 
ENDROOT
BRANCH   3   7
ATOM      7  C   UNL     1     -14.336   3.375   3.432  0.00  0.00    +0.000 C 
BRANCH   7   8
ATOM      8  C   UNL     1     -15.114   4.169   4.451  0.00  0.00    +0.000 A 
ATOM      9  C   UNL     1     -14.481   4.603   5.605  0.00  0.00    +0.000 A 
ATOM     10  C   UNL     1     -16.452   4.453   4.216  0.00  0.00    +0.000 A 
ATOM     11  C   UNL     1     -15.201   5.336   6.548  0.00  0.00    +0.000 A 
ATOM     12  C   UNL     1     -17.172   5.186   5.159  0.00  0.00    +0.000 A 
ATOM     13  C   UNL     1     -16.546   5.629   6.325  0.00  0.00    +0.000 A 
BRANCH  11  14
ATOM     14  O   UNL     1     -14.579   5.761   7.684  0.00  0.00    +0.000 OA
ATOM     15  C   UNL     1     -13.488   4.976   8.158  0.00  0.00    +0.000 C 
ENDBRANCH  11  14
BRANCH  13  16
ATOM     16  O   UNL     1     -17.260   6.344   7.238  0.00  0.00    +0.000 OA
ATOM     17  H   UNL     1     -16.645   6.920   7.723  0.00  0.00    +0.000 HD
ENDBRANCH  13  16
ENDBRANCH   7   8
ENDBRANCH   3   7
BRANCH   4  18
ATOM     18  C   UNL     1     -16.313   2.966   0.177  0.00  0.00    +0.000 C 
BRANCH  18  19
ATOM     19  C   UNL     1     -17.526   3.650   0.752  0.00  0.00    +0.000 A 
ATOM     20  C   UNL     1     -18.355   2.951   1.619  0.00  0.00    +0.000 A 
ATOM     21  C   UNL     1     -17.796   4.966   0.408  0.00  0.00    +0.000 A 
ATOM     22  C   UNL     1     -19.478   3.583   2.151  0.00  0.00    +0.000 A 
ATOM     23  C   UNL     1     -18.920   5.598   0.940  0.00  0.00    +0.000 A 
ATOM     24  C   UNL     1     -19.761   4.906   1.811  0.00  0.00    +0.000 A 
BRANCH  22  25
ATOM     25  O   UNL     1     -20.293   2.898   3.000  0.00  0.00    +0.000 OA
ATOM     26  C   UNL     1     -19.719   2.442   4.224  0.00  0.00    +0.000 C 
ENDBRANCH  22  25
BRANCH  24  27
ATOM     27  O   UNL     1     -20.854   5.534   2.326  0.00  0.00    +0.000 OA
ATOM     28  H   UNL     1     -20.858   5.410   3.291  0.00  0.00    +0.000 HD
ENDBRANCH  24  27
ENDBRANCH  18  19
ENDBRANCH   4  18
TORSDOF 8
ENDMDL
MODEL 4
REMARK VINA RESULT:      -5.7      1.450      6.080
REMARK  Name = ./IMPHY000001_3D.pdb
REMARK  10 active torsions:
REMARK  status: ('A' for Active; 'I' for Inactive)
REMARK    1  A    between atoms: O_3  and  C_19
REMARK    2  A    between atoms: O_3  and  C_25
REMARK    3  A    between atoms: O_4  and  C_20
REMARK    4  A    between atoms: O_4  and  C_26
REMARK    5  A    between atoms: O_5  and  C_23
REMARK    6  A    between atoms: O_6  and  C_24
REMARK    7  A    between atoms: C_7  and  C_10
REMARK    8  A    between atoms: C_8  and  C_11
REMARK    9  A    between atoms: C_10  and  C_13
REMARK   10  A    between atoms: C_11  and  C_14
REMARK                            x       y       z     vdW  Elec       q    Type
REMARK                         _______ _______ _______ _____ _____    ______ ____
ROOT
ATOM      1  O   UNL     1     -20.635   3.942   2.875  0.00  0.00    +0.000 OA
ATOM      2  O   UNL     1     -20.853   5.203   0.974  0.00  0.00    +0.000 OA
ATOM      3  C   UNL     1     -18.302   3.993   3.111  0.00  0.00    +0.000 C 
ATOM      4  C   UNL     1     -18.656   4.465   1.705  0.00  0.00    +0.000 C 
ATOM      5  C   UNL     1     -19.562   3.266   3.540  0.00  0.00    +0.000 C 
ATOM      6  C   UNL     1     -20.154   4.607   1.781  0.00  0.00    +0.000 C 
ENDROOT
BRANCH   3   7
ATOM      7  C   UNL     1     -18.011   5.177   4.037  0.00  0.00    +0.000 C 
BRANCH   7   8
ATOM      8  C   UNL     1     -16.693   5.022   4.751  0.00  0.00    +0.000 A 
ATOM      9  C   UNL     1     -15.841   3.988   4.394  0.00  0.00    +0.000 A 
ATOM     10  C   UNL     1     -16.353   5.917   5.756  0.00  0.00    +0.000 A 
ATOM     11  C   UNL     1     -14.622   3.845   5.056  0.00  0.00    +0.000 A 
ATOM     12  C   UNL     1     -15.134   5.774   6.417  0.00  0.00    +0.000 A 
ATOM     13  C   UNL     1     -14.267   4.738   6.067  0.00  0.00    +0.000 A 
BRANCH  11  14
ATOM     14  O   UNL     1     -13.785   2.828   4.706  0.00  0.00    +0.000 OA
ATOM     15  C   UNL     1     -14.206   1.504   5.026  0.00  0.00    +0.000 C 
ENDBRANCH  11  14
BRANCH  13  16
ATOM     16  O   UNL     1     -13.079   4.608   6.720  0.00  0.00    +0.000 OA
ATOM     17  H   UNL     1     -13.144   5.079   7.569  0.00  0.00    +0.000 HD
ENDBRANCH  13  16
ENDBRANCH   7   8
ENDBRANCH   3   7
BRANCH   4  18
ATOM     18  C   UNL     1     -18.287   3.455   0.627  0.00  0.00    +0.000 C 
BRANCH  18  19
ATOM     19  C   UNL     1     -16.920   2.865   0.852  0.00  0.00    +0.000 A 
ATOM     20  C   UNL     1     -15.797   3.661   0.677  0.00  0.00    +0.000 A 
ATOM     21  C   UNL     1     -16.803   1.536   1.231  0.00  0.00    +0.000 A 
ATOM     22  C   UNL     1     -14.530   3.116   0.884  0.00  0.00    +0.000 A 
ATOM     23  C   UNL     1     -15.536   0.990   1.439  0.00  0.00    +0.000 A 
ATOM     24  C   UNL     1     -14.400   1.780   1.265  0.00  0.00    +0.000 A 
BRANCH  22  25
ATOM     25  O   UNL     1     -13.429   3.897   0.711  0.00  0.00    +0.000 OA
ATOM     26  C   UNL     1     -12.984   4.652   1.836  0.00  0.00    +0.000 C 
ENDBRANCH  22  25
BRANCH  24  27
ATOM     27  O   UNL     1     -13.169   1.237   1.471  0.00  0.00    +0.000 OA
ATOM     28  H   UNL     1     -12.541   1.955   1.664  0.00  0.00    +0.000 HD
ENDBRANCH  24  27
ENDBRANCH  18  19
ENDBRANCH   4  18
TORSDOF 8
ENDMDL
MODEL 5
REMARK VINA RESULT:      -5.5     13.307     16.363
REMARK  Name = ./IMPHY000001_3D.pdb
REMARK  10 active torsions:
REMARK  status: ('A' for Active; 'I' for Inactive)
REMARK    1  A    between atoms: O_3  and  C_19
REMARK    2  A    between atoms: O_3  and  C_25
REMARK    3  A    between atoms: O_4  and  C_20
REMARK    4  A    between atoms: O_4  and  C_26
REMARK    5  A    between atoms: O_5  and  C_23
REMARK    6  A    between atoms: O_6  and  C_24
REMARK    7  A    between atoms: C_7  and  C_10
REMARK    8  A    between atoms: C_8  and  C_11
REMARK    9  A    between atoms: C_10  and  C_13
REMARK   10  A    between atoms: C_11  and  C_14
REMARK                            x       y       z     vdW  Elec       q    Type
REMARK                         _______ _______ _______ _____ _____    ______ ____
ROOT
ATOM      1  O   UNL     1     -27.928  11.453  13.993  0.00  0.00    +0.000 OA
ATOM      2  O   UNL     1     -25.704  11.768  13.540  0.00  0.00    +0.000 OA
ATOM      3  C   UNL     1     -28.802  11.670  11.827  0.00  0.00    +0.000 C 
ATOM      4  C   UNL     1     -27.373  12.202  11.827  0.00  0.00    +0.000 C 
ATOM      5  C   UNL     1     -29.160  11.689  13.300  0.00  0.00    +0.000 C 
ATOM      6  C   UNL     1     -26.874  11.785  13.187  0.00  0.00    +0.000 C 
ENDROOT
BRANCH   3   7
ATOM      7  C   UNL     1     -28.862  10.246  11.267  0.00  0.00    +0.000 C 
BRANCH   7   8
ATOM      8  C   UNL     1     -28.023  10.094  10.024  0.00  0.00    +0.000 A 
ATOM      9  C   UNL     1     -26.843   9.371  10.082  0.00  0.00    +0.000 A 
ATOM     10  C   UNL     1     -28.446  10.682   8.840  0.00  0.00    +0.000 A 
ATOM     11  C   UNL     1     -26.066   9.231   8.932  0.00  0.00    +0.000 A 
ATOM     12  C   UNL     1     -27.670  10.543   7.691  0.00  0.00    +0.000 A 
ATOM     13  C   UNL     1     -26.480   9.817   7.736  0.00  0.00    +0.000 A 
BRANCH  11  14
ATOM     14  O   UNL     1     -24.904   8.521   8.990  0.00  0.00    +0.000 OA
ATOM     15  C   UNL     1     -24.686   7.730  10.155  0.00  0.00    +0.000 C 
ENDBRANCH  11  14
BRANCH  13  16
ATOM     16  O   UNL     1     -25.730   9.688   6.606  0.00  0.00    +0.000 OA
ATOM     17  H   UNL     1     -25.992   8.865   6.158  0.00  0.00    +0.000 HD
ENDBRANCH  13  16
ENDBRANCH   7   8
ENDBRANCH   3   7
BRANCH   4  18
ATOM     18  C   UNL     1     -27.302  13.717  11.695  0.00  0.00    +0.000 C 
BRANCH  18  19
ATOM     19  C   UNL     1     -27.951  14.203  10.426  0.00  0.00    +0.000 A 
ATOM     20  C   UNL     1     -29.154  14.892  10.496  0.00  0.00    +0.000 A 
ATOM     21  C   UNL     1     -27.338  13.954   9.207  0.00  0.00    +0.000 A 
ATOM     22  C   UNL     1     -29.755  15.341   9.321  0.00  0.00    +0.000 A 
ATOM     23  C   UNL     1     -27.940  14.403   8.032  0.00  0.00    +0.000 A 
ATOM     24  C   UNL     1     -29.149  15.096   8.089  0.00  0.00    +0.000 A 
BRANCH  22  25
ATOM     25  O   UNL     1     -30.936  16.016   9.389  0.00  0.00    +0.000 OA
ATOM     26  C   UNL     1     -32.053  15.316   9.936  0.00  0.00    +0.000 C 
ENDBRANCH  22  25
BRANCH  24  27
ATOM     27  O   UNL     1     -29.727  15.531   6.935  0.00  0.00    +0.000 OA
ATOM     28  H   UNL     1     -29.646  14.830   6.264  0.00  0.00    +0.000 HD
ENDBRANCH  24  27
ENDBRANCH  18  19
ENDBRANCH   4  18
TORSDOF 8
ENDMDL
MODEL 6
REMARK VINA RESULT:      -5.5     12.665     15.148
REMARK  Name = ./IMPHY000001_3D.pdb
REMARK  10 active torsions:
REMARK  status: ('A' for Active; 'I' for Inactive)
REMARK    1  A    between atoms: O_3  and  C_19
REMARK    2  A    between atoms: O_3  and  C_25
REMARK    3  A    between atoms: O_4  and  C_20
REMARK    4  A    between atoms: O_4  and  C_26
REMARK    5  A    between atoms: O_5  and  C_23
REMARK    6  A    between atoms: O_6  and  C_24
REMARK    7  A    between atoms: C_7  and  C_10
REMARK    8  A    between atoms: C_8  and  C_11
REMARK    9  A    between atoms: C_10  and  C_13
REMARK   10  A    between atoms: C_11  and  C_14
REMARK                            x       y       z     vdW  Elec       q    Type
REMARK                         _______ _______ _______ _____ _____    ______ ____
ROOT
ATOM      1  O   UNL     1     -28.193   9.457   7.360  0.00  0.00    +0.000 OA
ATOM      2  O   UNL     1     -26.194   8.337   7.422  0.00  0.00    +0.000 OA
ATOM      3  C   UNL     1     -27.783  11.078   9.003  0.00  0.00    +0.000 C 
ATOM      4  C   UNL     1     -26.722   9.989   9.125  0.00  0.00    +0.000 C 
ATOM      5  C   UNL     1     -28.874  10.388   8.208  0.00  0.00    +0.000 C 
ATOM      6  C   UNL     1     -26.964   9.166   7.885  0.00  0.00    +0.000 C 
ENDROOT
BRANCH   3   7
ATOM      7  C   UNL     1     -27.242  12.296   8.249  0.00  0.00    +0.000 C 
BRANCH   7   8
ATOM      8  C   UNL     1     -27.837  13.584   8.759  0.00  0.00    +0.000 A 
ATOM      9  C   UNL     1     -28.177  13.695  10.098  0.00  0.00    +0.000 A 
ATOM     10  C   UNL     1     -28.036  14.638   7.879  0.00  0.00    +0.000 A 
ATOM     11  C   UNL     1     -28.728  14.886  10.569  0.00  0.00    +0.000 A 
ATOM     12  C   UNL     1     -28.588  15.828   8.350  0.00  0.00    +0.000 A 
ATOM     13  C   UNL     1     -28.934  15.953   9.696  0.00  0.00    +0.000 A 
BRANCH  11  14
ATOM     14  O   UNL     1     -29.064  14.994  11.886  0.00  0.00    +0.000 OA
ATOM     15  C   UNL     1     -28.263  14.274  12.820  0.00  0.00    +0.000 C 
ENDBRANCH  11  14
BRANCH  13  16
ATOM     16  O   UNL     1     -29.472  17.121  10.144  0.00  0.00    +0.000 OA
ATOM     17  H   UNL     1     -28.934  17.439  10.890  0.00  0.00    +0.000 HD
ENDBRANCH  13  16
ENDBRANCH   7   8
ENDBRANCH   3   7
BRANCH   4  18
ATOM     18  C   UNL     1     -26.900   9.120  10.362  0.00  0.00    +0.000 C 
BRANCH  18  19
ATOM     19  C   UNL     1     -25.798   9.339  11.366  0.00  0.00    +0.000 A 
ATOM     20  C   UNL     1     -25.926  10.351  12.308  0.00  0.00    +0.000 A 
ATOM     21  C   UNL     1     -24.674   8.528  11.335  0.00  0.00    +0.000 A 
ATOM     22  C   UNL     1     -24.906  10.554  13.238  0.00  0.00    +0.000 A 
ATOM     23  C   UNL     1     -23.655   8.731  12.265  0.00  0.00    +0.000 A 
ATOM     24  C   UNL     1     -23.770   9.745  13.215  0.00  0.00    +0.000 A 
BRANCH  22  25
ATOM     25  O   UNL     1     -25.031  11.548  14.160  0.00  0.00    +0.000 OA
ATOM     26  C   UNL     1     -26.302  11.692  14.791  0.00  0.00    +0.000 C 
ENDBRANCH  22  25
BRANCH  24  27
ATOM     27  O   UNL     1     -22.769   9.934  14.118  0.00  0.00    +0.000 OA
ATOM     28  H   UNL     1     -22.114   9.223  14.008  0.00  0.00    +0.000 HD
ENDBRANCH  24  27
ENDBRANCH  18  19
ENDBRANCH   4  18
TORSDOF 8
ENDMDL
MODEL 7
REMARK VINA RESULT:      -5.3     13.369     16.323
REMARK  Name = ./IMPHY000001_3D.pdb
REMARK  10 active torsions:
REMARK  status: ('A' for Active; 'I' for Inactive)
REMARK    1  A    between atoms: O_3  and  C_19
REMARK    2  A    between atoms: O_3  and  C_25
REMARK    3  A    between atoms: O_4  and  C_20
REMARK    4  A    between atoms: O_4  and  C_26
REMARK    5  A    between atoms: O_5  and  C_23
REMARK    6  A    between atoms: O_6  and  C_24
REMARK    7  A    between atoms: C_7  and  C_10
REMARK    8  A    between atoms: C_8  and  C_11
REMARK    9  A    between atoms: C_10  and  C_13
REMARK   10  A    between atoms: C_11  and  C_14
REMARK                            x       y       z     vdW  Elec       q    Type
REMARK                         _______ _______ _______ _____ _____    ______ ____
ROOT
ATOM      1  O   UNL     1     -27.746  11.197  14.082  0.00  0.00    +0.000 OA
ATOM      2  O   UNL     1     -30.026  10.997  13.965  0.00  0.00    +0.000 OA
ATOM      3  C   UNL     1     -27.300  11.861  11.878  0.00  0.00    +0.000 C 
ATOM      4  C   UNL     1     -28.723  11.316  11.939  0.00  0.00    +0.000 C 
ATOM      5  C   UNL     1     -26.675  11.292  13.137  0.00  0.00    +0.000 C 
ATOM      6  C   UNL     1     -28.944  11.161  13.422  0.00  0.00    +0.000 C 
ENDROOT
BRANCH   3   7
ATOM      7  C   UNL     1     -27.291  13.392  11.907  0.00  0.00    +0.000 C 
BRANCH   7   8
ATOM      8  C   UNL     1     -27.887  13.982  10.654  0.00  0.00    +0.000 A 
ATOM      9  C   UNL     1     -29.018  14.778  10.747  0.00  0.00    +0.000 A 
ATOM     10  C   UNL     1     -27.295  13.717   9.428  0.00  0.00    +0.000 A 
ATOM     11  C   UNL     1     -29.570  15.323   9.588  0.00  0.00    +0.000 A 
ATOM     12  C   UNL     1     -27.847  14.262   8.269  0.00  0.00    +0.000 A 
ATOM     13  C   UNL     1     -28.984  15.066   8.349  0.00  0.00    +0.000 A 
BRANCH  11  14
ATOM     14  O   UNL     1     -30.683  16.104   9.678  0.00  0.00    +0.000 OA
ATOM     15  C   UNL     1     -30.936  16.728  10.935  0.00  0.00    +0.000 C 
ENDBRANCH  11  14
BRANCH  13  16
ATOM     16  O   UNL     1     -29.514  15.592   7.209  0.00  0.00    +0.000 OA
ATOM     17  H   UNL     1     -29.673  16.540   7.355  0.00  0.00    +0.000 HD
ENDBRANCH  13  16
ENDBRANCH   7   8
ENDBRANCH   3   7
BRANCH   4  18
ATOM     18  C   UNL     1     -28.874   9.966  11.251  0.00  0.00    +0.000 C 
BRANCH  18  19
ATOM     19  C   UNL     1     -28.027   9.870  10.009  0.00  0.00    +0.000 A 
ATOM     20  C   UNL     1     -26.853   9.131  10.040  0.00  0.00    +0.000 A 
ATOM     21  C   UNL     1     -28.433  10.521   8.854  0.00  0.00    +0.000 A 
ATOM     22  C   UNL     1     -26.069   9.042   8.890  0.00  0.00    +0.000 A 
ATOM     23  C   UNL     1     -27.649  10.432   7.704  0.00  0.00    +0.000 A 
ATOM     24  C   UNL     1     -26.467   9.693   7.722  0.00  0.00    +0.000 A 
BRANCH  22  25
ATOM     25  O   UNL     1     -24.916   8.318   8.921  0.00  0.00    +0.000 OA
ATOM     26  C   UNL     1     -24.588   7.672  10.149  0.00  0.00    +0.000 C 
ENDBRANCH  22  25
BRANCH  24  27
ATOM     27  O   UNL     1     -25.710   9.612   6.593  0.00  0.00    +0.000 OA
ATOM     28  H   UNL     1     -26.262   9.862   5.831  0.00  0.00    +0.000 HD
ENDBRANCH  24  27
ENDBRANCH  18  19
ENDBRANCH   4  18
TORSDOF 8
ENDMDL
MODEL 8
REMARK VINA RESULT:      -5.3      2.075      4.892
REMARK  Name = ./IMPHY000001_3D.pdb
REMARK  10 active torsions:
REMARK  status: ('A' for Active; 'I' for Inactive)
REMARK    1  A    between atoms: O_3  and  C_19
REMARK    2  A    between atoms: O_3  and  C_25
REMARK    3  A    between atoms: O_4  and  C_20
REMARK    4  A    between atoms: O_4  and  C_26
REMARK    5  A    between atoms: O_5  and  C_23
REMARK    6  A    between atoms: O_6  and  C_24
REMARK    7  A    between atoms: C_7  and  C_10
REMARK    8  A    between atoms: C_8  and  C_11
REMARK    9  A    between atoms: C_10  and  C_13
REMARK   10  A    between atoms: C_11  and  C_14
REMARK                            x       y       z     vdW  Elec       q    Type
REMARK                         _______ _______ _______ _____ _____    ______ ____
ROOT
ATOM      1  O   UNL     1     -21.049   2.695   4.047  0.00  0.00    +0.000 OA
ATOM      2  O   UNL     1     -19.193   2.198   5.297  0.00  0.00    +0.000 OA
ATOM      3  C   UNL     1     -20.011   3.592   2.146  0.00  0.00    +0.000 C 
ATOM      4  C   UNL     1     -18.983   3.524   3.271  0.00  0.00    +0.000 C 
ATOM      5  C   UNL     1     -21.325   3.500   2.896  0.00  0.00    +0.000 C 
ATOM      6  C   UNL     1     -19.709   2.724   4.321  0.00  0.00    +0.000 C 
ENDROOT
BRANCH   3   7
ATOM      7  C   UNL     1     -19.850   2.418   1.176  0.00  0.00    +0.000 C 
BRANCH   7   8
ATOM      8  C   UNL     1     -18.838   2.713   0.099  0.00  0.00    +0.000 A 
ATOM      9  C   UNL     1     -18.414   1.692  -0.737  0.00  0.00    +0.000 A 
ATOM     10  C   UNL     1     -18.346   4.003  -0.040  0.00  0.00    +0.000 A 
ATOM     11  C   UNL     1     -17.477   1.965  -1.733  0.00  0.00    +0.000 A 
ATOM     12  C   UNL     1     -17.410   4.276  -1.036  0.00  0.00    +0.000 A 
ATOM     13  C   UNL     1     -16.975   3.257  -1.883  0.00  0.00    +0.000 A 
BRANCH  11  14
ATOM     14  O   UNL     1     -17.059   0.960  -2.553  0.00  0.00    +0.000 OA
ATOM     15  C   UNL     1     -17.433  -0.368  -2.195  0.00  0.00    +0.000 C 
ENDBRANCH  11  14
BRANCH  13  16
ATOM     16  O   UNL     1     -16.060   3.536  -2.852  0.00  0.00    +0.000 OA
ATOM     17  H   UNL     1     -16.511   3.516  -3.714  0.00  0.00    +0.000 HD
ENDBRANCH  13  16
ENDBRANCH   7   8
ENDBRANCH   3   7
BRANCH   4  18
ATOM     18  C   UNL     1     -18.617   4.893   3.826  0.00  0.00    +0.000 C 
BRANCH  18  19
ATOM     19  C   UNL     1     -17.223   4.914   4.399  0.00  0.00    +0.000 A 
ATOM     20  C   UNL     1     -16.261   4.059   3.880  0.00  0.00    +0.000 A 
ATOM     21  C   UNL     1     -16.923   5.786   5.435  0.00  0.00    +0.000 A 
ATOM     22  C   UNL     1     -14.971   4.077   4.410  0.00  0.00    +0.000 A 
ATOM     23  C   UNL     1     -15.633   5.804   5.964  0.00  0.00    +0.000 A 
ATOM     24  C   UNL     1     -14.658   4.949   5.453  0.00  0.00    +0.000 A 
BRANCH  22  25
ATOM     25  O   UNL     1     -14.027   3.237   3.903  0.00  0.00    +0.000 OA
ATOM     26  C   UNL     1     -13.596   3.479   2.564  0.00  0.00    +0.000 C 
ENDBRANCH  22  25
BRANCH  24  27
ATOM     27  O   UNL     1     -13.402   4.977   5.977  0.00  0.00    +0.000 OA
ATOM     28  H   UNL     1     -13.099   5.901   6.010  0.00  0.00    +0.000 HD
ENDBRANCH  24  27
ENDBRANCH  18  19
ENDBRANCH   4  18
TORSDOF 8
ENDMDL
MODEL 9
REMARK VINA RESULT:      -5.2      2.030      7.171
REMARK  Name = ./IMPHY000001_3D.pdb
REMARK  10 active torsions:
REMARK  status: ('A' for Active; 'I' for Inactive)
REMARK    1  A    between atoms: O_3  and  C_19
REMARK    2  A    between atoms: O_3  and  C_25
REMARK    3  A    between atoms: O_4  and  C_20
REMARK    4  A    between atoms: O_4  and  C_26
REMARK    5  A    between atoms: O_5  and  C_23
REMARK    6  A    between atoms: O_6  and  C_24
REMARK    7  A    between atoms: C_7  and  C_10
REMARK    8  A    between atoms: C_8  and  C_11
REMARK    9  A    between atoms: C_10  and  C_13
REMARK   10  A    between atoms: C_11  and  C_14
REMARK                            x       y       z     vdW  Elec       q    Type
REMARK                         _______ _______ _______ _____ _____    ______ ____
ROOT
ATOM      1  O   UNL     1     -20.424   2.538   4.569  0.00  0.00    +0.000 OA
ATOM      2  O   UNL     1     -22.155   3.289   3.269  0.00  0.00    +0.000 OA
ATOM      3  C   UNL     1     -18.615   3.344   3.313  0.00  0.00    +0.000 C 
ATOM      4  C   UNL     1     -19.871   3.411   2.450  0.00  0.00    +0.000 C 
ATOM      5  C   UNL     1     -19.013   2.361   4.397  0.00  0.00    +0.000 C 
ATOM      6  C   UNL     1     -20.960   3.099   3.443  0.00  0.00    +0.000 C 
ENDROOT
BRANCH   3   7
ATOM      7  C   UNL     1     -18.280   4.713   3.911  0.00  0.00    +0.000 C 
BRANCH   7   8
ATOM      8  C   UNL     1     -16.907   4.735   4.533  0.00  0.00    +0.000 A 
ATOM      9  C   UNL     1     -15.896   3.965   3.980  0.00  0.00    +0.000 A 
ATOM     10  C   UNL     1     -16.677   5.526   5.649  0.00  0.00    +0.000 A 
ATOM     11  C   UNL     1     -14.626   3.984   4.555  0.00  0.00    +0.000 A 
ATOM     12  C   UNL     1     -15.407   5.546   6.224  0.00  0.00    +0.000 A 
ATOM     13  C   UNL     1     -14.381   4.775   5.677  0.00  0.00    +0.000 A 
BRANCH  11  14
ATOM     14  O   UNL     1     -13.632   3.226   4.013  0.00  0.00    +0.000 OA
ATOM     15  C   UNL     1     -13.870   2.676   2.719  0.00  0.00    +0.000 C 
ENDBRANCH  11  14
BRANCH  13  16
ATOM     16  O   UNL     1     -13.145   4.803   6.249  0.00  0.00    +0.000 OA
ATOM     17  H   UNL     1     -12.842   3.887   6.367  0.00  0.00    +0.000 HD
ENDBRANCH  13  16
ENDBRANCH   7   8
ENDBRANCH   3   7
BRANCH   4  18
ATOM     18  C   UNL     1     -19.881   2.378   1.332  0.00  0.00    +0.000 C 
BRANCH  18  19
ATOM     19  C   UNL     1     -18.944   2.750   0.213  0.00  0.00    +0.000 A 
ATOM     20  C   UNL     1     -18.496   1.765  -0.656  0.00  0.00    +0.000 A 
ATOM     21  C   UNL     1     -18.544   4.070   0.067  0.00  0.00    +0.000 A 
ATOM     22  C   UNL     1     -17.628   2.109  -1.693  0.00  0.00    +0.000 A 
ATOM     23  C   UNL     1     -17.677   4.414  -0.970  0.00  0.00    +0.000 A 
ATOM     24  C   UNL     1     -17.218   3.433  -1.849  0.00  0.00    +0.000 A 
BRANCH  22  25
ATOM     25  O   UNL     1     -17.187   1.143  -2.544  0.00  0.00    +0.000 OA
ATOM     26  C   UNL     1     -16.261   0.191  -2.022  0.00  0.00    +0.000 C 
ENDBRANCH  22  25
BRANCH  24  27
ATOM     27  O   UNL     1     -16.373   3.781  -2.857  0.00  0.00    +0.000 OA
ATOM     28  H   UNL     1     -15.622   3.162  -2.860  0.00  0.00    +0.000 HD
ENDBRANCH  24  27
ENDBRANCH  18  19
ENDBRANCH   4  18
TORSDOF 8
ENDMDL
