MODEL 1
REMARK VINA RESULT:      -5.1      0.000      0.000
REMARK  Name = ./IMPHY000010_3D.pdb
REMARK  3 active torsions:
REMARK  status: ('A' for Active; 'I' for Inactive)
REMARK    1  A    between atoms: C_9  and  C_13
REMARK    2  A    between atoms: C_12  and  C_14
REMARK    3  A    between atoms: C_12  and  C_15
REMARK                            x       y       z     vdW  Elec       q    Type
REMARK                         _______ _______ _______ _____ _____    ______ ____
ROOT
ATOM      1  O   UNL     1     -26.874  11.123   7.577  0.00  0.00    +0.000 OA
ATOM      2  O   UNL     1     -26.144   9.195   6.633  0.00  0.00    +0.000 OA
ATOM      3  C   UNL     1     -26.858   9.921  10.101  0.00  0.00    +0.000 A 
ATOM      4  C   UNL     1     -26.472   9.186   8.975  0.00  0.00    +0.000 A 
ATOM      5  C   UNL     1     -27.268  11.309   9.949  0.00  0.00    +0.000 A 
ATOM      6  C   UNL     1     -26.848   9.309  11.360  0.00  0.00    +0.000 A 
ATOM      7  C   UNL     1     -26.077   7.849   9.107  0.00  0.00    +0.000 A 
ATOM      8  C   UNL     1     -26.477   9.817   7.634  0.00  0.00    +0.000 A 
ATOM      9  C   UNL     1     -27.261  11.847   8.725  0.00  0.00    +0.000 A 
ATOM     10  C   UNL     1     -26.455   7.977  11.490  0.00  0.00    +0.000 A 
ATOM     11  C   UNL     1     -26.070   7.248  10.366  0.00  0.00    +0.000 A 
ENDROOT
BRANCH   9  12
ATOM     12  C   UNL     1     -27.651  13.197   8.518  0.00  0.00    +0.000 C 
ATOM     13  C   UNL     1     -27.981  14.338   8.341  0.00  0.00    +0.000 C 
BRANCH  13  14
ATOM     14  C   UNL     1     -28.381  15.734   8.129  0.00  0.00    +0.000 C 
ATOM     15  C   UNL     1     -28.774  16.400   9.437  0.00  0.00    +0.000 C 
ENDBRANCH  13  14
ENDBRANCH   9  12
TORSDOF 2
ENDMDL
MODEL 2
REMARK VINA RESULT:      -5.0      4.532      6.051
REMARK  Name = ./IMPHY000010_3D.pdb
REMARK  3 active torsions:
REMARK  status: ('A' for Active; 'I' for Inactive)
REMARK    1  A    between atoms: C_9  and  C_13
REMARK    2  A    between atoms: C_12  and  C_14
REMARK    3  A    between atoms: C_12  and  C_15
REMARK                            x       y       z     vdW  Elec       q    Type
REMARK                         _______ _______ _______ _____ _____    ______ ____
ROOT
ATOM      1  O   UNL     1     -27.340  12.268  13.252  0.00  0.00    +0.000 OA
ATOM      2  O   UNL     1     -27.100  10.486  11.871  0.00  0.00    +0.000 OA
ATOM      3  C   UNL     1     -27.574  13.973  11.049  0.00  0.00    +0.000 A 
ATOM      4  C   UNL     1     -27.388  12.601  10.852  0.00  0.00    +0.000 A 
ATOM      5  C   UNL     1     -27.644  14.505  12.402  0.00  0.00    +0.000 A 
ATOM      6  C   UNL     1     -27.688  14.819   9.939  0.00  0.00    +0.000 A 
ATOM      7  C   UNL     1     -27.317  12.078   9.556  0.00  0.00    +0.000 A 
ATOM      8  C   UNL     1     -27.264  11.691  12.015  0.00  0.00    +0.000 A 
ATOM      9  C   UNL     1     -27.528  13.656  13.429  0.00  0.00    +0.000 A 
ATOM     10  C   UNL     1     -27.617  14.297   8.647  0.00  0.00    +0.000 A 
ATOM     11  C   UNL     1     -27.433  12.928   8.456  0.00  0.00    +0.000 A 
ENDROOT
BRANCH   9  12
ATOM     12  C   UNL     1     -27.588  14.118  14.770  0.00  0.00    +0.000 C 
ATOM     13  C   UNL     1     -27.641  14.509  15.904  0.00  0.00    +0.000 C 
BRANCH  13  14
ATOM     14  C   UNL     1     -27.700  14.986  17.291  0.00  0.00    +0.000 C 
ATOM     15  C   UNL     1     -27.544  16.496  17.362  0.00  0.00    +0.000 C 
ENDBRANCH  13  14
ENDBRANCH   9  12
TORSDOF 2
ENDMDL
MODEL 3
REMARK VINA RESULT:      -5.0      1.930      6.327
REMARK  Name = ./IMPHY000010_3D.pdb
REMARK  3 active torsions:
REMARK  status: ('A' for Active; 'I' for Inactive)
REMARK    1  A    between atoms: C_9  and  C_13
REMARK    2  A    between atoms: C_12  and  C_14
REMARK    3  A    between atoms: C_12  and  C_15
REMARK                            x       y       z     vdW  Elec       q    Type
REMARK                         _______ _______ _______ _____ _____    ______ ____
ROOT
ATOM      1  O   UNL     1     -27.350  11.262  10.639  0.00  0.00    +0.000 OA
ATOM      2  O   UNL     1     -27.769  12.707  12.335  0.00  0.00    +0.000 OA
ATOM      3  C   UNL     1     -27.654  13.324   8.776  0.00  0.00    +0.000 A 
ATOM      4  C   UNL     1     -27.803  13.589  10.141  0.00  0.00    +0.000 A 
ATOM      5  C   UNL     1     -27.341  11.973   8.334  0.00  0.00    +0.000 A 
ATOM      6  C   UNL     1     -27.809  14.363   7.851  0.00  0.00    +0.000 A 
ATOM      7  C   UNL     1     -28.105  14.884  10.579  0.00  0.00    +0.000 A 
ATOM      8  C   UNL     1     -27.643  12.501  11.135  0.00  0.00    +0.000 A 
ATOM      9  C   UNL     1     -27.204  11.015   9.257  0.00  0.00    +0.000 A 
ATOM     10  C   UNL     1     -28.110  15.653   8.288  0.00  0.00    +0.000 A 
ATOM     11  C   UNL     1     -28.257  15.914   9.650  0.00  0.00    +0.000 A 
ENDROOT
BRANCH   9  12
ATOM     12  C   UNL     1     -26.900   9.679   8.884  0.00  0.00    +0.000 C 
ATOM     13  C   UNL     1     -26.643   8.549   8.570  0.00  0.00    +0.000 C 
BRANCH  13  14
ATOM     14  C   UNL     1     -26.328   7.169   8.181  0.00  0.00    +0.000 C 
ATOM     15  C   UNL     1     -25.262   6.571   9.085  0.00  0.00    +0.000 C 
ENDBRANCH  13  14
ENDBRANCH   9  12
TORSDOF 2
ENDMDL
MODEL 4
REMARK VINA RESULT:      -4.8      1.625      2.432
REMARK  Name = ./IMPHY000010_3D.pdb
REMARK  3 active torsions:
REMARK  status: ('A' for Active; 'I' for Inactive)
REMARK    1  A    between atoms: C_9  and  C_13
REMARK    2  A    between atoms: C_12  and  C_14
REMARK    3  A    between atoms: C_12  and  C_15
REMARK                            x       y       z     vdW  Elec       q    Type
REMARK                         _______ _______ _______ _____ _____    ______ ____
ROOT
ATOM      1  O   UNL     1     -27.191  11.505  10.495  0.00  0.00    +0.000 OA
ATOM      2  O   UNL     1     -26.771  10.037  12.170  0.00  0.00    +0.000 OA
ATOM      3  C   UNL     1     -26.857   9.476   8.601  0.00  0.00    +0.000 A 
ATOM      4  C   UNL     1     -26.715   9.190   9.962  0.00  0.00    +0.000 A 
ATOM      5  C   UNL     1     -27.178  10.831   8.178  0.00  0.00    +0.000 A 
ATOM      6  C   UNL     1     -26.687   8.453   7.661  0.00  0.00    +0.000 A 
ATOM      7  C   UNL     1     -26.405   7.891  10.381  0.00  0.00    +0.000 A 
ATOM      8  C   UNL     1     -26.891  10.260  10.972  0.00  0.00    +0.000 A 
ATOM      9  C   UNL     1     -27.329  11.773   9.116  0.00  0.00    +0.000 A 
ATOM     10  C   UNL     1     -26.378   7.158   8.079  0.00  0.00    +0.000 A 
ATOM     11  C   UNL     1     -26.238   6.878   9.437  0.00  0.00    +0.000 A 
ENDROOT
BRANCH   9  12
ATOM     12  C   UNL     1     -27.642  13.112   8.762  0.00  0.00    +0.000 C 
ATOM     13  C   UNL     1     -27.907  14.244   8.462  0.00  0.00    +0.000 C 
BRANCH  13  14
ATOM     14  C   UNL     1     -28.229  15.630   8.099  0.00  0.00    +0.000 C 
ATOM     15  C   UNL     1     -28.648  16.436   9.317  0.00  0.00    +0.000 C 
ENDBRANCH  13  14
ENDBRANCH   9  12
TORSDOF 2
ENDMDL
MODEL 5
REMARK VINA RESULT:      -4.8      4.030      5.316
REMARK  Name = ./IMPHY000010_3D.pdb
REMARK  3 active torsions:
REMARK  status: ('A' for Active; 'I' for Inactive)
REMARK    1  A    between atoms: C_9  and  C_13
REMARK    2  A    between atoms: C_12  and  C_14
REMARK    3  A    between atoms: C_12  and  C_15
REMARK                            x       y       z     vdW  Elec       q    Type
REMARK                         _______ _______ _______ _____ _____    ______ ____
ROOT
ATOM      1  O   UNL     1     -27.652  14.626  11.518  0.00  0.00    +0.000 OA
ATOM      2  O   UNL     1     -27.705  15.256   9.341  0.00  0.00    +0.000 OA
ATOM      3  C   UNL     1     -27.372  11.949  10.762  0.00  0.00    +0.000 A 
ATOM      4  C   UNL     1     -27.469  12.944   9.784  0.00  0.00    +0.000 A 
ATOM      5  C   UNL     1     -27.418  12.315  12.169  0.00  0.00    +0.000 A 
ATOM      6  C   UNL     1     -27.233  10.612  10.373  0.00  0.00    +0.000 A 
ATOM      7  C   UNL     1     -27.427  12.605   8.426  0.00  0.00    +0.000 A 
ATOM      8  C   UNL     1     -27.617  14.366  10.177  0.00  0.00    +0.000 A 
ATOM      9  C   UNL     1     -27.553  13.607  12.490  0.00  0.00    +0.000 A 
ATOM     10  C   UNL     1     -27.192  10.275   9.020  0.00  0.00    +0.000 A 
ATOM     11  C   UNL     1     -27.289  11.270   8.048  0.00  0.00    +0.000 A 
ENDROOT
BRANCH   9  12
ATOM     12  C   UNL     1     -27.604  14.022  13.847  0.00  0.00    +0.000 C 
ATOM     13  C   UNL     1     -27.647  14.372  14.994  0.00  0.00    +0.000 C 
BRANCH  13  14
ATOM     14  C   UNL     1     -27.702  14.804  16.396  0.00  0.00    +0.000 C 
ATOM     15  C   UNL     1     -26.693  14.049  17.246  0.00  0.00    +0.000 C 
ENDBRANCH  13  14
ENDBRANCH   9  12
TORSDOF 2
ENDMDL
MODEL 6
REMARK VINA RESULT:      -4.6      4.954      7.147
REMARK  Name = ./IMPHY000010_3D.pdb
REMARK  3 active torsions:
REMARK  status: ('A' for Active; 'I' for Inactive)
REMARK    1  A    between atoms: C_9  and  C_13
REMARK    2  A    between atoms: C_12  and  C_14
REMARK    3  A    between atoms: C_12  and  C_15
REMARK                            x       y       z     vdW  Elec       q    Type
REMARK                         _______ _______ _______ _____ _____    ______ ____
ROOT
ATOM      1  O   UNL     1     -29.587  15.252  12.575  0.00  0.00    +0.000 OA
ATOM      2  O   UNL     1     -31.070  16.273  11.196  0.00  0.00    +0.000 OA
ATOM      3  C   UNL     1     -28.044  14.472  10.378  0.00  0.00    +0.000 A 
ATOM      4  C   UNL     1     -29.216  15.209  10.181  0.00  0.00    +0.000 A 
ATOM      5  C   UNL     1     -27.636  14.115  11.728  0.00  0.00    +0.000 A 
ATOM      6  C   UNL     1     -27.280  14.086   9.271  0.00  0.00    +0.000 A 
ATOM      7  C   UNL     1     -29.621  15.559   8.887  0.00  0.00    +0.000 A 
ATOM      8  C   UNL     1     -30.039  15.627  11.341  0.00  0.00    +0.000 A 
ATOM      9  C   UNL     1     -28.401  14.507  12.752  0.00  0.00    +0.000 A 
ATOM     10  C   UNL     1     -27.684  14.433   7.982  0.00  0.00    +0.000 A 
ATOM     11  C   UNL     1     -28.853  15.169   7.790  0.00  0.00    +0.000 A 
ENDROOT
BRANCH   9  12
ATOM     12  C   UNL     1     -28.052  14.187  14.091  0.00  0.00    +0.000 C 
ATOM     13  C   UNL     1     -27.755  13.915  15.222  0.00  0.00    +0.000 C 
BRANCH  13  14
ATOM     14  C   UNL     1     -27.396  13.587  16.607  0.00  0.00    +0.000 C 
ATOM     15  C   UNL     1     -27.177  14.843  17.433  0.00  0.00    +0.000 C 
ENDBRANCH  13  14
ENDBRANCH   9  12
TORSDOF 2
ENDMDL
MODEL 7
REMARK VINA RESULT:      -4.6      1.680      2.285
REMARK  Name = ./IMPHY000010_3D.pdb
REMARK  3 active torsions:
REMARK  status: ('A' for Active; 'I' for Inactive)
REMARK    1  A    between atoms: C_9  and  C_13
REMARK    2  A    between atoms: C_12  and  C_14
REMARK    3  A    between atoms: C_12  and  C_15
REMARK                            x       y       z     vdW  Elec       q    Type
REMARK                         _______ _______ _______ _____ _____    ______ ____
ROOT
ATOM      1  O   UNL     1     -28.327   9.759   7.918  0.00  0.00    +0.000 OA
ATOM      2  O   UNL     1     -29.281   7.856   7.136  0.00  0.00    +0.000 OA
ATOM      3  C   UNL     1     -26.182   8.289   8.944  0.00  0.00    +0.000 A 
ATOM      4  C   UNL     1     -27.219   7.633   8.274  0.00  0.00    +0.000 A 
ATOM      5  C   UNL     1     -26.226   9.734   9.104  0.00  0.00    +0.000 A 
ATOM      6  C   UNL     1     -25.113   7.543   9.456  0.00  0.00    +0.000 A 
ATOM      7  C   UNL     1     -27.189   6.243   8.115  0.00  0.00    +0.000 A 
ATOM      8  C   UNL     1     -28.360   8.406   7.726  0.00  0.00    +0.000 A 
ATOM      9  C   UNL     1     -27.270  10.401   8.598  0.00  0.00    +0.000 A 
ATOM     10  C   UNL     1     -25.084   6.157   9.298  0.00  0.00    +0.000 A 
ATOM     11  C   UNL     1     -26.120   5.508   8.628  0.00  0.00    +0.000 A 
ENDROOT
BRANCH   9  12
ATOM     12  C   UNL     1     -27.366  11.812   8.724  0.00  0.00    +0.000 C 
ATOM     13  C   UNL     1     -27.448  13.006   8.829  0.00  0.00    +0.000 C 
BRANCH  13  14
ATOM     14  C   UNL     1     -27.547  14.464   8.962  0.00  0.00    +0.000 C 
ATOM     15  C   UNL     1     -28.338  15.070   7.816  0.00  0.00    +0.000 C 
ENDBRANCH  13  14
ENDBRANCH   9  12
TORSDOF 2
ENDMDL
MODEL 8
REMARK VINA RESULT:      -4.4      2.732      6.722
REMARK  Name = ./IMPHY000010_3D.pdb
REMARK  3 active torsions:
REMARK  status: ('A' for Active; 'I' for Inactive)
REMARK    1  A    between atoms: C_9  and  C_13
REMARK    2  A    between atoms: C_12  and  C_14
REMARK    3  A    between atoms: C_12  and  C_15
REMARK                            x       y       z     vdW  Elec       q    Type
REMARK                         _______ _______ _______ _____ _____    ______ ____
ROOT
ATOM      1  O   UNL     1     -27.639  12.675  12.183  0.00  0.00    +0.000 OA
ATOM      2  O   UNL     1     -28.418  14.708  12.817  0.00  0.00    +0.000 OA
ATOM      3  C   UNL     1     -27.707  13.460   9.500  0.00  0.00    +0.000 A 
ATOM      4  C   UNL     1     -28.107  14.353  10.499  0.00  0.00    +0.000 A 
ATOM      5  C   UNL     1     -27.258  12.125   9.865  0.00  0.00    +0.000 A 
ATOM      6  C   UNL     1     -27.746  13.863   8.160  0.00  0.00    +0.000 A 
ATOM      7  C   UNL     1     -28.542  15.640  10.161  0.00  0.00    +0.000 A 
ATOM      8  C   UNL     1     -28.073  13.945  11.923  0.00  0.00    +0.000 A 
ATOM      9  C   UNL     1     -27.240  11.788  11.159  0.00  0.00    +0.000 A 
ATOM     10  C   UNL     1     -28.180  15.145   7.824  0.00  0.00    +0.000 A 
ATOM     11  C   UNL     1     -28.577  16.033   8.823  0.00  0.00    +0.000 A 
ENDROOT
BRANCH   9  12
ATOM     12  C   UNL     1     -26.812  10.499  11.574  0.00  0.00    +0.000 C 
ATOM     13  C   UNL     1     -26.449   9.410  11.925  0.00  0.00    +0.000 C 
BRANCH  13  14
ATOM     14  C   UNL     1     -26.007   8.076  12.350  0.00  0.00    +0.000 C 
ATOM     15  C   UNL     1     -24.524   7.876  12.083  0.00  0.00    +0.000 C 
ENDBRANCH  13  14
ENDBRANCH   9  12
TORSDOF 2
ENDMDL
MODEL 9
REMARK VINA RESULT:      -4.4     12.891     14.631
REMARK  Name = ./IMPHY000010_3D.pdb
REMARK  3 active torsions:
REMARK  status: ('A' for Active; 'I' for Inactive)
REMARK    1  A    between atoms: C_9  and  C_13
REMARK    2  A    between atoms: C_12  and  C_14
REMARK    3  A    between atoms: C_12  and  C_15
REMARK                            x       y       z     vdW  Elec       q    Type
REMARK                         _______ _______ _______ _____ _____    ______ ____
ROOT
ATOM      1  O   UNL     1     -31.037  23.135   9.421  0.00  0.00    +0.000 OA
ATOM      2  O   UNL     1     -31.392  21.578  11.030  0.00  0.00    +0.000 OA
ATOM      3  C   UNL     1     -31.176  25.173  11.330  0.00  0.00    +0.000 A 
ATOM      4  C   UNL     1     -31.332  23.840  11.720  0.00  0.00    +0.000 A 
ATOM      5  C   UNL     1     -30.943  25.491   9.929  0.00  0.00    +0.000 A 
ATOM      6  C   UNL     1     -31.248  26.186  12.293  0.00  0.00    +0.000 A 
ATOM      7  C   UNL     1     -31.558  23.520  13.065  0.00  0.00    +0.000 A 
ATOM      8  C   UNL     1     -31.258  22.754  10.714  0.00  0.00    +0.000 A 
ATOM      9  C   UNL     1     -30.883  24.488   9.047  0.00  0.00    +0.000 A 
ATOM     10  C   UNL     1     -31.474  25.868  13.632  0.00  0.00    +0.000 A 
ATOM     11  C   UNL     1     -31.628  24.537  14.017  0.00  0.00    +0.000 A 
ENDROOT
BRANCH   9  12
ATOM     12  C   UNL     1     -30.658  24.739   7.668  0.00  0.00    +0.000 C 
ATOM     13  C   UNL     1     -30.469  24.952   6.501  0.00  0.00    +0.000 C 
BRANCH  13  14
ATOM     14  C   UNL     1     -30.234  25.209   5.075  0.00  0.00    +0.000 C 
ATOM     15  C   UNL     1     -28.755  25.399   4.785  0.00  0.00    +0.000 C 
ENDBRANCH  13  14
ENDBRANCH   9  12
TORSDOF 2
ENDMDL
