MODEL 1
REMARK VINA RESULT:      -5.7      0.000      0.000
REMARK  Name = ./IMPHY000003_3D.pdb
REMARK  4 active torsions:
REMARK  status: ('A' for Active; 'I' for Inactive)
REMARK    1  A    between atoms: O_2  and  C_13
REMARK    2  A    between atoms: C_3  and  C_12
REMARK    3  A    between atoms: C_5  and  C_15
REMARK    4  A    between atoms: C_5  and  C_16
REMARK                            x       y       z     vdW  Elec       q    Type
REMARK                         _______ _______ _______ _____ _____    ______ ____
ROOT
ATOM      1  O   UNL     1     -16.212   3.454  -1.014  0.00  0.00    +0.000 OA
ATOM      2  C   UNL     1     -15.659   3.588   2.751  0.00  0.00    +0.000 C 
ATOM      3  C   UNL     1     -16.528   4.594   3.603  0.00  0.00    +0.000 C 
ATOM      4  C   UNL     1     -16.195   4.704   5.134  0.00  0.00    +0.000 C 
ATOM      5  C   UNL     1     -15.910   3.982   1.256  0.00  0.00    +0.000 C 
ATOM      6  C   UNL     1     -14.160   3.779   3.084  0.00  0.00    +0.000 C 
ATOM      7  C   UNL     1     -14.662   4.818   5.323  0.00  0.00    +0.000 C 
ATOM      8  C   UNL     1     -18.040   4.442   3.276  0.00  0.00    +0.000 C 
ATOM      9  C   UNL     1     -13.866   3.751   4.580  0.00  0.00    +0.000 C 
ATOM     10  C   UNL     1     -17.357   4.115   0.905  0.00  0.00    +0.000 C 
ATOM     11  C   UNL     1     -16.036   2.106   2.987  0.00  0.00    +0.000 C 
ATOM     12  C   UNL     1     -15.456   3.041   0.143  0.00  0.00    +0.000 C 
ATOM     13  C   UNL     1     -18.328   4.302   1.805  0.00  0.00    +0.000 C 
ATOM     14  C   UNL     1     -16.742   3.555   6.003  0.00  0.00    +0.000 C 
ATOM     15  C   UNL     1     -16.823   6.005   5.701  0.00  0.00    +0.000 C 
ATOM     16  C   UNL     1     -17.512   3.873  -0.555  0.00  0.00    +0.000 C 
ENDROOT
BRANCH  12  17
ATOM     17  O   UNL     1     -14.063   3.185  -0.079  0.00  0.00    +0.000 OA
ATOM     18  H   UNL     1     -13.950   3.516  -0.986  0.00  0.00    +0.000 HD
ENDBRANCH  12  17
TORSDOF 1
ENDMDL
MODEL 2
REMARK VINA RESULT:      -5.6      2.913      4.341
REMARK  Name = ./IMPHY000003_3D.pdb
REMARK  4 active torsions:
REMARK  status: ('A' for Active; 'I' for Inactive)
REMARK    1  A    between atoms: O_2  and  C_13
REMARK    2  A    between atoms: C_3  and  C_12
REMARK    3  A    between atoms: C_5  and  C_15
REMARK    4  A    between atoms: C_5  and  C_16
REMARK                            x       y       z     vdW  Elec       q    Type
REMARK                         _______ _______ _______ _____ _____    ______ ____
ROOT
ATOM      1  O   UNL     1     -16.528   1.673  -2.741  0.00  0.00    +0.000 OA
ATOM      2  C   UNL     1     -18.046   3.542   0.209  0.00  0.00    +0.000 C 
ATOM      3  C   UNL     1     -19.326   2.934   0.905  0.00  0.00    +0.000 C 
ATOM      4  C   UNL     1     -19.991   3.788   2.044  0.00  0.00    +0.000 C 
ATOM      5  C   UNL     1     -17.859   2.720  -1.111  0.00  0.00    +0.000 C 
ATOM      6  C   UNL     1     -18.298   5.027  -0.147  0.00  0.00    +0.000 C 
ATOM      7  C   UNL     1     -20.116   5.260   1.580  0.00  0.00    +0.000 C 
ATOM      8  C   UNL     1     -19.112   1.436   1.257  0.00  0.00    +0.000 C 
ATOM      9  C   UNL     1     -18.823   5.848   1.027  0.00  0.00    +0.000 C 
ATOM     10  C   UNL     1     -17.898   1.239  -0.907  0.00  0.00    +0.000 C 
ATOM     11  C   UNL     1     -16.773   3.450   1.085  0.00  0.00    +0.000 C 
ATOM     12  C   UNL     1     -16.554   2.841  -1.895  0.00  0.00    +0.000 C 
ATOM     13  C   UNL     1     -18.441   0.649   0.163  0.00  0.00    +0.000 C 
ATOM     14  C   UNL     1     -19.270   3.731   3.405  0.00  0.00    +0.000 C 
ATOM     15  C   UNL     1     -21.429   3.266   2.300  0.00  0.00    +0.000 C 
ATOM     16  C   UNL     1     -17.132   0.592  -2.005  0.00  0.00    +0.000 C 
ENDROOT
BRANCH  12  17
ATOM     17  O   UNL     1     -16.558   4.031  -2.666  0.00  0.00    +0.000 OA
ATOM     18  H   UNL     1     -15.646   4.179  -2.970  0.00  0.00    +0.000 HD
ENDBRANCH  12  17
TORSDOF 1
ENDMDL
MODEL 3
REMARK VINA RESULT:      -5.5      1.755      3.003
REMARK  Name = ./IMPHY000003_3D.pdb
REMARK  4 active torsions:
REMARK  status: ('A' for Active; 'I' for Inactive)
REMARK    1  A    between atoms: O_2  and  C_13
REMARK    2  A    between atoms: C_3  and  C_12
REMARK    3  A    between atoms: C_5  and  C_15
REMARK    4  A    between atoms: C_5  and  C_16
REMARK                            x       y       z     vdW  Elec       q    Type
REMARK                         _______ _______ _______ _____ _____    ______ ____
ROOT
ATOM      1  O   UNL     1     -20.003   5.168   0.627  0.00  0.00    +0.000 OA
ATOM      2  C   UNL     1     -16.664   3.679   1.695  0.00  0.00    +0.000 C 
ATOM      3  C   UNL     1     -16.103   4.043   3.126  0.00  0.00    +0.000 C 
ATOM      4  C   UNL     1     -14.673   3.503   3.489  0.00  0.00    +0.000 C 
ATOM      5  C   UNL     1     -17.863   4.659   1.457  0.00  0.00    +0.000 C 
ATOM      6  C   UNL     1     -15.576   3.935   0.625  0.00  0.00    +0.000 C 
ATOM      7  C   UNL     1     -13.708   3.761   2.305  0.00  0.00    +0.000 C 
ATOM      8  C   UNL     1     -17.180   3.817   4.223  0.00  0.00    +0.000 C 
ATOM      9  C   UNL     1     -14.238   3.283   0.958  0.00  0.00    +0.000 C 
ATOM     10  C   UNL     1     -18.837   4.704   2.590  0.00  0.00    +0.000 C 
ATOM     11  C   UNL     1     -17.138   2.211   1.582  0.00  0.00    +0.000 C 
ATOM     12  C   UNL     1     -18.824   4.404   0.297  0.00  0.00    +0.000 C 
ATOM     13  C   UNL     1     -18.549   4.310   3.836  0.00  0.00    +0.000 C 
ATOM     14  C   UNL     1     -14.620   2.016   3.887  0.00  0.00    +0.000 C 
ATOM     15  C   UNL     1     -14.123   4.292   4.706  0.00  0.00    +0.000 C 
ATOM     16  C   UNL     1     -20.161   5.124   2.059  0.00  0.00    +0.000 C 
ENDROOT
BRANCH  12  17
ATOM     17  O   UNL     1     -18.249   4.851  -0.920  0.00  0.00    +0.000 OA
ATOM     18  H   UNL     1     -18.913   5.404  -1.364  0.00  0.00    +0.000 HD
ENDBRANCH  12  17
TORSDOF 1
ENDMDL
MODEL 4
REMARK VINA RESULT:      -5.3      3.053      5.534
REMARK  Name = ./IMPHY000003_3D.pdb
REMARK  4 active torsions:
REMARK  status: ('A' for Active; 'I' for Inactive)
REMARK    1  A    between atoms: O_2  and  C_13
REMARK    2  A    between atoms: C_3  and  C_12
REMARK    3  A    between atoms: C_5  and  C_15
REMARK    4  A    between atoms: C_5  and  C_16
REMARK                            x       y       z     vdW  Elec       q    Type
REMARK                         _______ _______ _______ _____ _____    ______ ____
ROOT
ATOM      1  O   UNL     1     -15.318   5.858   7.771  0.00  0.00    +0.000 OA
ATOM      2  C   UNL     1     -16.507   4.224   4.543  0.00  0.00    +0.000 C 
ATOM      3  C   UNL     1     -15.447   3.952   3.404  0.00  0.00    +0.000 C 
ATOM      4  C   UNL     1     -15.992   3.382   2.045  0.00  0.00    +0.000 C 
ATOM      5  C   UNL     1     -15.778   5.146   5.578  0.00  0.00    +0.000 C 
ATOM      6  C   UNL     1     -17.724   4.977   3.957  0.00  0.00    +0.000 C 
ATOM      7  C   UNL     1     -17.248   4.181   1.616  0.00  0.00    +0.000 C 
ATOM      8  C   UNL     1     -14.200   3.214   3.964  0.00  0.00    +0.000 C 
ATOM      9  C   UNL     1     -18.301   4.314   2.710  0.00  0.00    +0.000 C 
ATOM     10  C   UNL     1     -14.433   4.642   5.991  0.00  0.00    +0.000 C 
ATOM     11  C   UNL     1     -17.006   2.931   5.232  0.00  0.00    +0.000 C 
ATOM     12  C   UNL     1     -16.404   5.376   6.952  0.00  0.00    +0.000 C 
ATOM     13  C   UNL     1     -13.721   3.757   5.284  0.00  0.00    +0.000 C 
ATOM     14  C   UNL     1     -16.313   1.875   2.054  0.00  0.00    +0.000 C 
ATOM     15  C   UNL     1     -14.922   3.585   0.940  0.00  0.00    +0.000 C 
ATOM     16  C   UNL     1     -14.119   5.183   7.340  0.00  0.00    +0.000 C 
ENDROOT
BRANCH  12  17
ATOM     17  O   UNL     1     -17.441   6.339   6.861  0.00  0.00    +0.000 OA
ATOM     18  H   UNL     1     -17.185   7.090   7.423  0.00  0.00    +0.000 HD
ENDBRANCH  12  17
TORSDOF 1
ENDMDL
MODEL 5
REMARK VINA RESULT:      -5.0     13.173     15.396
REMARK  Name = ./IMPHY000003_3D.pdb
REMARK  4 active torsions:
REMARK  status: ('A' for Active; 'I' for Inactive)
REMARK    1  A    between atoms: O_2  and  C_13
REMARK    2  A    between atoms: C_3  and  C_12
REMARK    3  A    between atoms: C_5  and  C_15
REMARK    4  A    between atoms: C_5  and  C_16
REMARK                            x       y       z     vdW  Elec       q    Type
REMARK                         _______ _______ _______ _____ _____    ______ ____
ROOT
ATOM      1  O   UNL     1     -25.667   7.537  10.234  0.00  0.00    +0.000 OA
ATOM      2  C   UNL     1     -27.421  10.910  10.436  0.00  0.00    +0.000 C 
ATOM      3  C   UNL     1     -27.301  11.894   9.206  0.00  0.00    +0.000 C 
ATOM      4  C   UNL     1     -27.942  13.319   9.369  0.00  0.00    +0.000 C 
ATOM      5  C   UNL     1     -26.374   9.777  10.166  0.00  0.00    +0.000 C 
ATOM      6  C   UNL     1     -27.045  11.653  11.740  0.00  0.00    +0.000 C 
ATOM      7  C   UNL     1     -27.541  13.912  10.743  0.00  0.00    +0.000 C 
ATOM      8  C   UNL     1     -27.654  11.172   7.876  0.00  0.00    +0.000 C 
ATOM      9  C   UNL     1     -27.788  12.973  11.919  0.00  0.00    +0.000 C 
ATOM     10  C   UNL     1     -26.467   9.186   8.796  0.00  0.00    +0.000 C 
ATOM     11  C   UNL     1     -28.837  10.307  10.598  0.00  0.00    +0.000 C 
ATOM     12  C   UNL     1     -26.413   8.501  11.004  0.00  0.00    +0.000 C 
ATOM     13  C   UNL     1     -27.057   9.794   7.761  0.00  0.00    +0.000 C 
ATOM     14  C   UNL     1     -29.474  13.367   9.210  0.00  0.00    +0.000 C 
ATOM     15  C   UNL     1     -27.369  14.264   8.280  0.00  0.00    +0.000 C 
ATOM     16  C   UNL     1     -25.923   7.803   8.841  0.00  0.00    +0.000 C 
ENDROOT
BRANCH  12  17
ATOM     17  O   UNL     1     -25.807   8.727  12.266  0.00  0.00    +0.000 OA
ATOM     18  H   UNL     1     -26.411   9.293  12.777  0.00  0.00    +0.000 HD
ENDBRANCH  12  17
TORSDOF 1
ENDMDL
MODEL 6
REMARK VINA RESULT:      -5.0     13.314     15.646
REMARK  Name = ./IMPHY000003_3D.pdb
REMARK  4 active torsions:
REMARK  status: ('A' for Active; 'I' for Inactive)
REMARK    1  A    between atoms: O_2  and  C_13
REMARK    2  A    between atoms: C_3  and  C_12
REMARK    3  A    between atoms: C_5  and  C_15
REMARK    4  A    between atoms: C_5  and  C_16
REMARK                            x       y       z     vdW  Elec       q    Type
REMARK                         _______ _______ _______ _____ _____    ______ ____
ROOT
ATOM      1  O   UNL     1     -27.899  14.749  10.377  0.00  0.00    +0.000 OA
ATOM      2  C   UNL     1     -27.592  11.170   9.114  0.00  0.00    +0.000 C 
ATOM      3  C   UNL     1     -26.692  10.160   9.930  0.00  0.00    +0.000 C 
ATOM      4  C   UNL     1     -26.498   8.726   9.320  0.00  0.00    +0.000 C 
ATOM      5  C   UNL     1     -27.275  12.584   9.709  0.00  0.00    +0.000 C 
ATOM      6  C   UNL     1     -27.188  11.142   7.621  0.00  0.00    +0.000 C 
ATOM      7  C   UNL     1     -26.170   8.846   7.811  0.00  0.00    +0.000 C 
ATOM      8  C   UNL     1     -27.059  10.179  11.440  0.00  0.00    +0.000 C 
ATOM      9  C   UNL     1     -27.137   9.734   7.036  0.00  0.00    +0.000 C 
ATOM     10  C   UNL     1     -27.351  12.640  11.200  0.00  0.00    +0.000 C 
ATOM     11  C   UNL     1     -29.105  10.866   9.227  0.00  0.00    +0.000 C 
ATOM     12  C   UNL     1     -28.174  13.767   9.356  0.00  0.00    +0.000 C 
ATOM     13  C   UNL     1     -27.275  11.563  11.991  0.00  0.00    +0.000 C 
ATOM     14  C   UNL     1     -27.688   7.767   9.518  0.00  0.00    +0.000 C 
ATOM     15  C   UNL     1     -25.281   8.043   9.998  0.00  0.00    +0.000 C 
ATOM     16  C   UNL     1     -27.650  14.039  11.606  0.00  0.00    +0.000 C 
ENDROOT
BRANCH  12  17
ATOM     17  O   UNL     1     -27.846  14.262   8.068  0.00  0.00    +0.000 OA
ATOM     18  H   UNL     1     -28.581  14.027   7.476  0.00  0.00    +0.000 HD
ENDBRANCH  12  17
TORSDOF 1
ENDMDL
MODEL 7
REMARK VINA RESULT:      -4.8     17.807     20.156
REMARK  Name = ./IMPHY000003_3D.pdb
REMARK  4 active torsions:
REMARK  status: ('A' for Active; 'I' for Inactive)
REMARK    1  A    between atoms: O_2  and  C_13
REMARK    2  A    between atoms: C_3  and  C_12
REMARK    3  A    between atoms: C_5  and  C_15
REMARK    4  A    between atoms: C_5  and  C_16
REMARK                            x       y       z     vdW  Elec       q    Type
REMARK                         _______ _______ _______ _____ _____    ______ ____
ROOT
ATOM      1  O   UNL     1     -32.169  17.335  12.832  0.00  0.00    +0.000 OA
ATOM      2  C   UNL     1     -30.043  15.565  10.215  0.00  0.00    +0.000 C 
ATOM      3  C   UNL     1     -29.343  14.206  10.609  0.00  0.00    +0.000 C 
ATOM      4  C   UNL     1     -28.384  13.563   9.544  0.00  0.00    +0.000 C 
ATOM      5  C   UNL     1     -30.575  16.166  11.560  0.00  0.00    +0.000 C 
ATOM      6  C   UNL     1     -29.001  16.532   9.602  0.00  0.00    +0.000 C 
ATOM      7  C   UNL     1     -27.449  14.653   8.964  0.00  0.00    +0.000 C 
ATOM      8  C   UNL     1     -30.359  13.219  11.248  0.00  0.00    +0.000 C 
ATOM      9  C   UNL     1     -28.179  15.902   8.482  0.00  0.00    +0.000 C 
ATOM     10  C   UNL     1     -31.362  15.196  12.381  0.00  0.00    +0.000 C 
ATOM     11  C   UNL     1     -31.205  15.384   9.210  0.00  0.00    +0.000 C 
ATOM     12  C   UNL     1     -31.556  17.336  11.526  0.00  0.00    +0.000 C 
ATOM     13  C   UNL     1     -31.290  13.868  12.238  0.00  0.00    +0.000 C 
ATOM     14  C   UNL     1     -29.093  12.821   8.394  0.00  0.00    +0.000 C 
ATOM     15  C   UNL     1     -27.481  12.510  10.239  0.00  0.00    +0.000 C 
ATOM     16  C   UNL     1     -32.295  15.961  13.250  0.00  0.00    +0.000 C 
ENDROOT
BRANCH  12  17
ATOM     17  O   UNL     1     -30.860  18.548  11.289  0.00  0.00    +0.000 OA
ATOM     18  H   UNL     1     -30.112  18.575  11.910  0.00  0.00    +0.000 HD
ENDBRANCH  12  17
TORSDOF 1
ENDMDL
MODEL 8
REMARK VINA RESULT:      -4.7     14.886     16.977
REMARK  Name = ./IMPHY000003_3D.pdb
REMARK  4 active torsions:
REMARK  status: ('A' for Active; 'I' for Inactive)
REMARK    1  A    between atoms: O_2  and  C_13
REMARK    2  A    between atoms: C_3  and  C_12
REMARK    3  A    between atoms: C_5  and  C_15
REMARK    4  A    between atoms: C_5  and  C_16
REMARK                            x       y       z     vdW  Elec       q    Type
REMARK                         _______ _______ _______ _____ _____    ______ ____
ROOT
ATOM      1  O   UNL     1     -28.220   9.249   7.856  0.00  0.00    +0.000 OA
ATOM      2  C   UNL     1     -28.335  12.830   9.145  0.00  0.00    +0.000 C 
ATOM      3  C   UNL     1     -29.745  13.514   9.338  0.00  0.00    +0.000 C 
ATOM      4  C   UNL     1     -29.751  15.026   9.763  0.00  0.00    +0.000 C 
ATOM      5  C   UNL     1     -28.616  11.513   8.345  0.00  0.00    +0.000 C 
ATOM      6  C   UNL     1     -27.417  13.750   8.306  0.00  0.00    +0.000 C 
ATOM      7  C   UNL     1     -28.740  15.812   8.892  0.00  0.00    +0.000 C 
ATOM      8  C   UNL     1     -30.699  12.604  10.161  0.00  0.00    +0.000 C 
ATOM      9  C   UNL     1     -27.353  15.181   8.831  0.00  0.00    +0.000 C 
ATOM     10  C   UNL     1     -29.715  10.681   8.924  0.00  0.00    +0.000 C 
ATOM     11  C   UNL     1     -27.626  12.506  10.482  0.00  0.00    +0.000 C 
ATOM     12  C   UNL     1     -27.521  10.455   8.227  0.00  0.00    +0.000 C 
ATOM     13  C   UNL     1     -30.647  11.154   9.759  0.00  0.00    +0.000 C 
ATOM     14  C   UNL     1     -29.463  15.285  11.255  0.00  0.00    +0.000 C 
ATOM     15  C   UNL     1     -31.154  15.628   9.488  0.00  0.00    +0.000 C 
ATOM     16  C   UNL     1     -29.498   9.266   8.521  0.00  0.00    +0.000 C 
ENDROOT
BRANCH  12  17
ATOM     17  O   UNL     1     -26.585  10.831   7.231  0.00  0.00    +0.000 OA
ATOM     18  H   UNL     1     -26.083  10.033   6.994  0.00  0.00    +0.000 HD
ENDBRANCH  12  17
TORSDOF 1
ENDMDL
MODEL 9
REMARK VINA RESULT:      -4.6     11.583     12.846
REMARK  Name = ./IMPHY000003_3D.pdb
REMARK  4 active torsions:
REMARK  status: ('A' for Active; 'I' for Inactive)
REMARK    1  A    between atoms: O_2  and  C_13
REMARK    2  A    between atoms: C_3  and  C_12
REMARK    3  A    between atoms: C_5  and  C_15
REMARK    4  A    between atoms: C_5  and  C_16
REMARK                            x       y       z     vdW  Elec       q    Type
REMARK                         _______ _______ _______ _____ _____    ______ ____
ROOT
ATOM      1  O   UNL     1     -26.575   7.371   7.486  0.00  0.00    +0.000 OA
ATOM      2  C   UNL     1     -24.951   7.429  10.930  0.00  0.00    +0.000 C 
ATOM      3  C   UNL     1     -24.654   8.829  11.597  0.00  0.00    +0.000 C 
ATOM      4  C   UNL     1     -23.882   8.817  12.965  0.00  0.00    +0.000 C 
ATOM      5  C   UNL     1     -25.330   7.747   9.444  0.00  0.00    +0.000 C 
ATOM      6  C   UNL     1     -23.675   6.555  10.955  0.00  0.00    +0.000 C 
ATOM      7  C   UNL     1     -22.675   7.851  12.870  0.00  0.00    +0.000 C 
ATOM      8  C   UNL     1     -25.912   9.740  11.570  0.00  0.00    +0.000 C 
ATOM      9  C   UNL     1     -23.030   6.468  12.335  0.00  0.00    +0.000 C 
ATOM     10  C   UNL     1     -26.367   8.814   9.304  0.00  0.00    +0.000 C 
ATOM     11  C   UNL     1     -26.098   6.655  11.624  0.00  0.00    +0.000 C 
ATOM     12  C   UNL     1     -25.957   6.657   8.578  0.00  0.00    +0.000 C 
ATOM     13  C   UNL     1     -26.654   9.705  10.259  0.00  0.00    +0.000 C 
ATOM     14  C   UNL     1     -24.740   8.457  14.194  0.00  0.00    +0.000 C 
ATOM     15  C   UNL     1     -23.312  10.233  13.243  0.00  0.00    +0.000 C 
ATOM     16  C   UNL     1     -27.077   8.615   8.012  0.00  0.00    +0.000 C 
ENDROOT
BRANCH  12  17
ATOM     17  O   UNL     1     -24.954   5.772   8.106  0.00  0.00    +0.000 OA
ATOM     18  H   UNL     1     -24.117   6.042   8.520  0.00  0.00    +0.000 HD
ENDBRANCH  12  17
TORSDOF 1
ENDMDL
