MODEL 1
REMARK VINA RESULT:      -5.8      0.000      0.000
REMARK  Name = ./IMPHY000007_3D.pdb
REMARK  7 active torsions:
REMARK  status: ('A' for Active; 'I' for Inactive)
REMARK    1  A    between atoms: O_1  and  C_14
REMARK    2  A    between atoms: O_1  and  C_22
REMARK    3  A    between atoms: O_2  and  C_12
REMARK    4  A    between atoms: O_3  and  C_20
REMARK    5  A    between atoms: O_3  and  C_23
REMARK    6  A    between atoms: O_4  and  C_21
REMARK    7  A    between atoms: O_4  and  C_24
REMARK                            x       y       z     vdW  Elec       q    Type
REMARK                         _______ _______ _______ _____ _____    ______ ____
ROOT
ATOM      1  N   UNL     1     -19.503   4.474   3.488  0.00  0.00    +0.000 NA
ATOM      2  C   UNL     1     -18.075   4.052   3.512  0.00  0.00    +0.000 C 
ATOM      3  C   UNL     1     -17.247   5.091   4.308  0.00  0.00    +0.000 C 
ATOM      4  C   UNL     1     -18.193   2.786   4.341  0.00  0.00    +0.000 C 
ATOM      5  C   UNL     1     -17.509   3.812   2.097  0.00  0.00    +0.000 A 
ATOM      6  C   UNL     1     -19.858   5.458   2.483  0.00  0.00    +0.000 C 
ATOM      7  C   UNL     1     -20.313   3.244   3.536  0.00  0.00    +0.000 C 
ATOM      8  C   UNL     1     -19.484   5.060   1.060  0.00  0.00    +0.000 C 
ATOM      9  C   UNL     1     -18.165   4.329   0.959  0.00  0.00    +0.000 A 
ATOM     10  C   UNL     1     -15.929   4.524   4.879  0.00  0.00    +0.000 C 
ATOM     11  C   UNL     1     -19.439   2.298   4.298  0.00  0.00    +0.000 C 
ATOM     12  C   UNL     1     -17.115   2.333   5.175  0.00  0.00    +0.000 C 
ATOM     13  C   UNL     1     -16.062   3.126   5.428  0.00  0.00    +0.000 C 
ATOM     14  C   UNL     1     -16.316   3.093   1.889  0.00  0.00    +0.000 A 
ATOM     15  C   UNL     1     -17.615   4.140  -0.324  0.00  0.00    +0.000 A 
ATOM     16  C   UNL     1     -15.782   2.907   0.612  0.00  0.00    +0.000 A 
ATOM     17  C   UNL     1     -16.428   3.435  -0.496  0.00  0.00    +0.000 A 
ENDROOT
BRANCH  10  18
ATOM     18  O   UNL     1     -15.482   5.379   5.931  0.00  0.00    +0.000 OA
ATOM     19  C   UNL     1     -16.524   5.653   6.854  0.00  0.00    +0.000 C 
ENDBRANCH  10  18
BRANCH   8  20
ATOM     20  O   UNL     1     -20.557   4.298   0.502  0.00  0.00    +0.000 OA
ATOM     21  H   UNL     1     -21.369   4.539   0.979  0.00  0.00    +0.000 HD
ENDBRANCH   8  20
BRANCH  16  22
ATOM     22  O   UNL     1     -14.616   2.215   0.471  0.00  0.00    +0.000 OA
ATOM     23  C   UNL     1     -13.440   2.808   1.018  0.00  0.00    +0.000 C 
ENDBRANCH  16  22
BRANCH  17  24
ATOM     24  O   UNL     1     -15.921   3.268  -1.746  0.00  0.00    +0.000 OA
ATOM     25  C   UNL     1     -16.423   2.172  -2.508  0.00  0.00    +0.000 C 
ENDBRANCH  17  24
TORSDOF 4
ENDMDL
MODEL 2
REMARK VINA RESULT:      -5.8      1.818      4.526
REMARK  Name = ./IMPHY000007_3D.pdb
REMARK  7 active torsions:
REMARK  status: ('A' for Active; 'I' for Inactive)
REMARK    1  A    between atoms: O_1  and  C_14
REMARK    2  A    between atoms: O_1  and  C_22
REMARK    3  A    between atoms: O_2  and  C_12
REMARK    4  A    between atoms: O_3  and  C_20
REMARK    5  A    between atoms: O_3  and  C_23
REMARK    6  A    between atoms: O_4  and  C_21
REMARK    7  A    between atoms: O_4  and  C_24
REMARK                            x       y       z     vdW  Elec       q    Type
REMARK                         _______ _______ _______ _____ _____    ______ ____
ROOT
ATOM      1  N   UNL     1     -16.416   4.193   5.568  0.00  0.00    +0.000 NA
ATOM      2  C   UNL     1     -16.896   3.782   4.219  0.00  0.00    +0.000 C 
ATOM      3  C   UNL     1     -17.732   2.485   4.345  0.00  0.00    +0.000 C 
ATOM      4  C   UNL     1     -17.833   4.938   3.916  0.00  0.00    +0.000 C 
ATOM      5  C   UNL     1     -15.744   3.641   3.203  0.00  0.00    +0.000 A 
ATOM      6  C   UNL     1     -15.221   3.525   6.048  0.00  0.00    +0.000 C 
ATOM      7  C   UNL     1     -16.415   5.666   5.592  0.00  0.00    +0.000 C 
ATOM      8  C   UNL     1     -14.030   3.618   5.100  0.00  0.00    +0.000 C 
ATOM      9  C   UNL     1     -14.406   3.524   3.640  0.00  0.00    +0.000 A 
ATOM     10  C   UNL     1     -18.722   2.272   3.179  0.00  0.00    +0.000 C 
ATOM     11  C   UNL     1     -17.517   6.016   4.642  0.00  0.00    +0.000 C 
ATOM     12  C   UNL     1     -18.990   4.765   3.082  0.00  0.00    +0.000 C 
ATOM     13  C   UNL     1     -19.408   3.538   2.733  0.00  0.00    +0.000 C 
ATOM     14  C   UNL     1     -15.981   3.600   1.816  0.00  0.00    +0.000 A 
ATOM     15  C   UNL     1     -13.368   3.351   2.704  0.00  0.00    +0.000 A 
ATOM     16  C   UNL     1     -14.943   3.433   0.896  0.00  0.00    +0.000 A 
ATOM     17  C   UNL     1     -13.635   3.303   1.339  0.00  0.00    +0.000 A 
ENDROOT
BRANCH  10  18
ATOM     18  O   UNL     1     -19.722   1.342   3.593  0.00  0.00    +0.000 OA
ATOM     19  C   UNL     1     -20.179   1.623   4.907  0.00  0.00    +0.000 C 
ENDBRANCH  10  18
BRANCH   8  20
ATOM     20  O   UNL     1     -13.313   4.821   5.387  0.00  0.00    +0.000 OA
ATOM     21  H   UNL     1     -13.636   5.161   6.238  0.00  0.00    +0.000 HD
ENDBRANCH   8  20
BRANCH  16  22
ATOM     22  O   UNL     1     -15.233   3.387  -0.435  0.00  0.00    +0.000 OA
ATOM     23  C   UNL     1     -16.591   3.143  -0.795  0.00  0.00    +0.000 C 
ENDBRANCH  16  22
BRANCH  17  24
ATOM     24  O   UNL     1     -12.613   3.136   0.459  0.00  0.00    +0.000 OA
ATOM     25  C   UNL     1     -11.353   2.737   0.997  0.00  0.00    +0.000 C 
ENDBRANCH  17  24
TORSDOF 4
ENDMDL
MODEL 3
REMARK VINA RESULT:      -5.6      2.092      4.374
REMARK  Name = ./IMPHY000007_3D.pdb
REMARK  7 active torsions:
REMARK  status: ('A' for Active; 'I' for Inactive)
REMARK    1  A    between atoms: O_1  and  C_14
REMARK    2  A    between atoms: O_1  and  C_22
REMARK    3  A    between atoms: O_2  and  C_12
REMARK    4  A    between atoms: O_3  and  C_20
REMARK    5  A    between atoms: O_3  and  C_23
REMARK    6  A    between atoms: O_4  and  C_21
REMARK    7  A    between atoms: O_4  and  C_24
REMARK                            x       y       z     vdW  Elec       q    Type
REMARK                         _______ _______ _______ _____ _____    ______ ____
ROOT
ATOM      1  N   UNL     1     -14.160   2.715   3.330  0.00  0.00    +0.000 NA
ATOM      2  C   UNL     1     -15.547   3.138   3.666  0.00  0.00    +0.000 C 
ATOM      3  C   UNL     1     -16.269   1.986   4.408  0.00  0.00    +0.000 C 
ATOM      4  C   UNL     1     -15.247   4.244   4.662  0.00  0.00    +0.000 C 
ATOM      5  C   UNL     1     -16.332   3.620   2.428  0.00  0.00    +0.000 A 
ATOM      6  C   UNL     1     -14.013   1.913   2.130  0.00  0.00    +0.000 C 
ATOM      7  C   UNL     1     -13.309   3.912   3.443  0.00  0.00    +0.000 C 
ATOM      8  C   UNL     1     -14.604   2.550   0.877  0.00  0.00    +0.000 C 
ATOM      9  C   UNL     1     -15.893   3.298   1.125  0.00  0.00    +0.000 A 
ATOM     10  C   UNL     1     -17.452   2.458   5.281  0.00  0.00    +0.000 C 
ATOM     11  C   UNL     1     -14.009   4.722   4.489  0.00  0.00    +0.000 C 
ATOM     12  C   UNL     1     -16.154   4.558   5.731  0.00  0.00    +0.000 C 
ATOM     13  C   UNL     1     -17.178   3.741   6.024  0.00  0.00    +0.000 C 
ATOM     14  C   UNL     1     -17.515   4.373   2.549  0.00  0.00    +0.000 A 
ATOM     15  C   UNL     1     -16.642   3.707   0.004  0.00  0.00    +0.000 A 
ATOM     16  C   UNL     1     -18.248   4.777   1.430  0.00  0.00    +0.000 A 
ATOM     17  C   UNL     1     -17.814   4.440   0.156  0.00  0.00    +0.000 A 
ENDROOT
BRANCH  10  18
ATOM     18  O   UNL     1     -17.749   1.441   6.237  0.00  0.00    +0.000 OA
ATOM     19  C   UNL     1     -18.536   1.947   7.304  0.00  0.00    +0.000 C 
ENDBRANCH  10  18
BRANCH   8  20
ATOM     20  O   UNL     1     -13.611   3.388   0.279  0.00  0.00    +0.000 OA
ATOM     21  H   UNL     1     -13.215   3.925   0.986  0.00  0.00    +0.000 HD
ENDBRANCH   8  20
BRANCH  16  22
ATOM     22  O   UNL     1     -19.394   5.493   1.607  0.00  0.00    +0.000 OA
ATOM     23  C   UNL     1     -20.590   4.753   1.844  0.00  0.00    +0.000 C 
ENDBRANCH  16  22
BRANCH  17  24
ATOM     24  O   UNL     1     -18.516   4.821  -0.944  0.00  0.00    +0.000 OA
ATOM     25  C   UNL     1     -18.497   3.937  -2.063  0.00  0.00    +0.000 C 
ENDBRANCH  17  24
TORSDOF 4
ENDMDL
MODEL 4
REMARK VINA RESULT:      -5.4     11.937     14.822
REMARK  Name = ./IMPHY000007_3D.pdb
REMARK  7 active torsions:
REMARK  status: ('A' for Active; 'I' for Inactive)
REMARK    1  A    between atoms: O_1  and  C_14
REMARK    2  A    between atoms: O_1  and  C_22
REMARK    3  A    between atoms: O_2  and  C_12
REMARK    4  A    between atoms: O_3  and  C_20
REMARK    5  A    between atoms: O_3  and  C_23
REMARK    6  A    between atoms: O_4  and  C_21
REMARK    7  A    between atoms: O_4  and  C_24
REMARK                            x       y       z     vdW  Elec       q    Type
REMARK                         _______ _______ _______ _____ _____    ______ ____
ROOT
ATOM      1  N   UNL     1     -27.947  10.447   7.300  0.00  0.00    +0.000 NA
ATOM      2  C   UNL     1     -27.863  11.089   8.640  0.00  0.00    +0.000 C 
ATOM      3  C   UNL     1     -27.320  12.531   8.485  0.00  0.00    +0.000 C 
ATOM      4  C   UNL     1     -29.340  11.161   8.985  0.00  0.00    +0.000 C 
ATOM      5  C   UNL     1     -27.036  10.256   9.642  0.00  0.00    +0.000 A 
ATOM      6  C   UNL     1     -26.714   9.877   6.790  0.00  0.00    +0.000 C 
ATOM      7  C   UNL     1     -29.131   9.571   7.318  0.00  0.00    +0.000 C 
ATOM      8  C   UNL     1     -26.055   8.872   7.729  0.00  0.00    +0.000 C 
ATOM      9  C   UNL     1     -26.161   9.245   9.190  0.00  0.00    +0.000 A 
ATOM     10  C   UNL     1     -27.703  13.465   9.653  0.00  0.00    +0.000 C 
ATOM     11  C   UNL     1     -30.040  10.259   8.287  0.00  0.00    +0.000 C 
ATOM     12  C   UNL     1     -29.864  12.203   9.824  0.00  0.00    +0.000 C 
ATOM     13  C   UNL     1     -29.116  13.271  10.141  0.00  0.00    +0.000 C 
ATOM     14  C   UNL     1     -27.105  10.485  11.029  0.00  0.00    +0.000 A 
ATOM     15  C   UNL     1     -25.379   8.521  10.112  0.00  0.00    +0.000 A 
ATOM     16  C   UNL     1     -26.329   9.758  11.935  0.00  0.00    +0.000 A 
ATOM     17  C   UNL     1     -25.461   8.778  11.476  0.00  0.00    +0.000 A 
ENDROOT
BRANCH  10  18
ATOM     18  O   UNL     1     -27.560  14.818   9.221  0.00  0.00    +0.000 OA
ATOM     19  C   UNL     1     -28.224  15.041   7.987  0.00  0.00    +0.000 C 
ENDBRANCH  10  18
BRANCH   8  20
ATOM     20  O   UNL     1     -26.604   7.578   7.471  0.00  0.00    +0.000 OA
ATOM     21  H   UNL     1     -25.988   6.919   7.833  0.00  0.00    +0.000 HD
ENDBRANCH   8  20
BRANCH  16  22
ATOM     22  O   UNL     1     -26.426  10.031  13.266  0.00  0.00    +0.000 OA
ATOM     23  C   UNL     1     -25.839  11.248  13.723  0.00  0.00    +0.000 C 
ENDBRANCH  16  22
BRANCH  17  24
ATOM     24  O   UNL     1     -24.694   8.064  12.342  0.00  0.00    +0.000 OA
ATOM     25  C   UNL     1     -23.355   8.511  12.543  0.00  0.00    +0.000 C 
ENDBRANCH  17  24
TORSDOF 4
ENDMDL
MODEL 5
REMARK VINA RESULT:      -5.3     12.423     15.060
REMARK  Name = ./IMPHY000007_3D.pdb
REMARK  7 active torsions:
REMARK  status: ('A' for Active; 'I' for Inactive)
REMARK    1  A    between atoms: O_1  and  C_14
REMARK    2  A    between atoms: O_1  and  C_22
REMARK    3  A    between atoms: O_2  and  C_12
REMARK    4  A    between atoms: O_3  and  C_20
REMARK    5  A    between atoms: O_3  and  C_23
REMARK    6  A    between atoms: O_4  and  C_21
REMARK    7  A    between atoms: O_4  and  C_24
REMARK                            x       y       z     vdW  Elec       q    Type
REMARK                         _______ _______ _______ _____ _____    ______ ____
ROOT
ATOM      1  N   UNL     1     -26.770   8.352   9.154  0.00  0.00    +0.000 NA
ATOM      2  C   UNL     1     -27.214   9.319  10.196  0.00  0.00    +0.000 C 
ATOM      3  C   UNL     1     -28.580   8.867  10.767  0.00  0.00    +0.000 C 
ATOM      4  C   UNL     1     -26.144   9.076  11.246  0.00  0.00    +0.000 C 
ATOM      5  C   UNL     1     -27.247  10.771   9.675  0.00  0.00    +0.000 A 
ATOM      6  C   UNL     1     -27.332   8.541   7.830  0.00  0.00    +0.000 C 
ATOM      7  C   UNL     1     -25.303   8.262   9.252  0.00  0.00    +0.000 C 
ATOM      8  C   UNL     1     -27.128   9.941   7.260  0.00  0.00    +0.000 C 
ATOM      9  C   UNL     1     -27.247  11.041   8.289  0.00  0.00    +0.000 A 
ATOM     10  C   UNL     1     -28.874   9.419  12.179  0.00  0.00    +0.000 C 
ATOM     11  C   UNL     1     -25.046   8.543  10.699  0.00  0.00    +0.000 C 
ATOM     12  C   UNL     1     -26.414   9.255  12.646  0.00  0.00    +0.000 C 
ATOM     13  C   UNL     1     -27.671   9.417  13.088  0.00  0.00    +0.000 C 
ATOM     14  C   UNL     1     -27.301  11.871  10.552  0.00  0.00    +0.000 A 
ATOM     15  C   UNL     1     -27.322  12.369   7.826  0.00  0.00    +0.000 A 
ATOM     16  C   UNL     1     -27.370  13.184  10.082  0.00  0.00    +0.000 A 
ATOM     17  C   UNL     1     -27.386  13.435   8.717  0.00  0.00    +0.000 A 
ENDROOT
BRANCH  10  18
ATOM     18  O   UNL     1     -29.891   8.618  12.779  0.00  0.00    +0.000 OA
ATOM     19  C   UNL     1     -29.682   7.238  12.525  0.00  0.00    +0.000 C 
ENDBRANCH  10  18
BRANCH   8  20
ATOM     20  O   UNL     1     -25.868   9.980   6.586  0.00  0.00    +0.000 OA
ATOM     21  H   UNL     1     -25.274   9.354   7.035  0.00  0.00    +0.000 HD
ENDBRANCH   8  20
BRANCH  16  22
ATOM     22  O   UNL     1     -27.434  14.210  10.976  0.00  0.00    +0.000 OA
ATOM     23  C   UNL     1     -28.710  14.494  11.548  0.00  0.00    +0.000 C 
ENDBRANCH  16  22
BRANCH  17  24
ATOM     24  O   UNL     1     -27.457  14.706   8.241  0.00  0.00    +0.000 OA
ATOM     25  C   UNL     1     -28.723  15.145   7.752  0.00  0.00    +0.000 C 
ENDBRANCH  17  24
TORSDOF 4
ENDMDL
MODEL 6
REMARK VINA RESULT:      -5.3      2.032      4.739
REMARK  Name = ./IMPHY000007_3D.pdb
REMARK  7 active torsions:
REMARK  status: ('A' for Active; 'I' for Inactive)
REMARK    1  A    between atoms: O_1  and  C_14
REMARK    2  A    between atoms: O_1  and  C_22
REMARK    3  A    between atoms: O_2  and  C_12
REMARK    4  A    between atoms: O_3  and  C_20
REMARK    5  A    between atoms: O_3  and  C_23
REMARK    6  A    between atoms: O_4  and  C_21
REMARK    7  A    between atoms: O_4  and  C_24
REMARK                            x       y       z     vdW  Elec       q    Type
REMARK                         _______ _______ _______ _____ _____    ______ ____
ROOT
ATOM      1  N   UNL     1     -14.869   3.118   4.481  0.00  0.00    +0.000 NA
ATOM      2  C   UNL     1     -15.042   2.894   3.019  0.00  0.00    +0.000 C 
ATOM      3  C   UNL     1     -13.834   3.496   2.261  0.00  0.00    +0.000 C 
ATOM      4  C   UNL     1     -14.937   1.380   2.976  0.00  0.00    +0.000 C 
ATOM      5  C   UNL     1     -16.390   3.434   2.497  0.00  0.00    +0.000 A 
ATOM      6  C   UNL     1     -15.269   4.422   4.976  0.00  0.00    +0.000 C 
ATOM      7  C   UNL     1     -15.433   1.941   5.164  0.00  0.00    +0.000 C 
ATOM      8  C   UNL     1     -16.702   4.809   4.629  0.00  0.00    +0.000 C 
ATOM      9  C   UNL     1     -17.136   4.365   3.251  0.00  0.00    +0.000 A 
ATOM     10  C   UNL     1     -13.601   2.868   0.870  0.00  0.00    +0.000 C 
ATOM     11  C   UNL     1     -15.223   0.844   4.169  0.00  0.00    +0.000 C 
ATOM     12  C   UNL     1     -14.421   0.697   1.822  0.00  0.00    +0.000 C 
ATOM     13  C   UNL     1     -13.805   1.375   0.841  0.00  0.00    +0.000 C 
ATOM     14  C   UNL     1     -16.912   3.039   1.250  0.00  0.00    +0.000 A 
ATOM     15  C   UNL     1     -18.343   4.883   2.743  0.00  0.00    +0.000 A 
ATOM     16  C   UNL     1     -18.113   3.555   0.758  0.00  0.00    +0.000 A 
ATOM     17  C   UNL     1     -18.828   4.482   1.502  0.00  0.00    +0.000 A 
ENDROOT
BRANCH  10  18
ATOM     18  O   UNL     1     -12.262   3.146   0.461  0.00  0.00    +0.000 OA
ATOM     19  C   UNL     1     -11.324   2.722   1.437  0.00  0.00    +0.000 C 
ENDBRANCH  10  18
BRANCH   8  20
ATOM     20  O   UNL     1     -17.570   4.304   5.646  0.00  0.00    +0.000 OA
ATOM     21  H   UNL     1     -17.371   3.359   5.761  0.00  0.00    +0.000 HD
ENDBRANCH   8  20
BRANCH  16  22
ATOM     22  O   UNL     1     -18.564   3.148  -0.461  0.00  0.00    +0.000 OA
ATOM     23  C   UNL     1     -18.010   3.793  -1.606  0.00  0.00    +0.000 C 
ENDBRANCH  16  22
BRANCH  17  24
ATOM     24  O   UNL     1     -19.996   4.999   1.038  0.00  0.00    +0.000 OA
ATOM     25  C   UNL     1     -21.202   4.457   1.573  0.00  0.00    +0.000 C 
ENDBRANCH  17  24
TORSDOF 4
ENDMDL
MODEL 7
REMARK VINA RESULT:      -5.1      1.945      5.203
REMARK  Name = ./IMPHY000007_3D.pdb
REMARK  7 active torsions:
REMARK  status: ('A' for Active; 'I' for Inactive)
REMARK    1  A    between atoms: O_1  and  C_14
REMARK    2  A    between atoms: O_1  and  C_22
REMARK    3  A    between atoms: O_2  and  C_12
REMARK    4  A    between atoms: O_3  and  C_20
REMARK    5  A    between atoms: O_3  and  C_23
REMARK    6  A    between atoms: O_4  and  C_21
REMARK    7  A    between atoms: O_4  and  C_24
REMARK                            x       y       z     vdW  Elec       q    Type
REMARK                         _______ _______ _______ _____ _____    ______ ____
ROOT
ATOM      1  N   UNL     1     -19.035   3.976   1.648  0.00  0.00    +0.000 NA
ATOM      2  C   UNL     1     -17.789   3.404   1.066  0.00  0.00    +0.000 C 
ATOM      3  C   UNL     1     -18.037   1.927   0.675  0.00  0.00    +0.000 C 
ATOM      4  C   UNL     1     -17.692   4.233  -0.202  0.00  0.00    +0.000 C 
ATOM      5  C   UNL     1     -16.574   3.567   2.003  0.00  0.00    +0.000 A 
ATOM      6  C   UNL     1     -19.270   3.694   3.051  0.00  0.00    +0.000 C 
ATOM      7  C   UNL     1     -19.093   5.388   1.231  0.00  0.00    +0.000 C 
ATOM      8  C   UNL     1     -18.120   4.095   3.970  0.00  0.00    +0.000 C 
ATOM      9  C   UNL     1     -16.753   3.852   3.375  0.00  0.00    +0.000 A 
ATOM     10  C   UNL     1     -17.070   1.403  -0.408  0.00  0.00    +0.000 C 
ATOM     11  C   UNL     1     -18.373   5.379  -0.081  0.00  0.00    +0.000 C 
ATOM     12  C   UNL     1     -17.083   3.711  -1.394  0.00  0.00    +0.000 C 
ATOM     13  C   UNL     1     -16.789   2.405  -1.499  0.00  0.00    +0.000 C 
ATOM     14  C   UNL     1     -15.254   3.417   1.536  0.00  0.00    +0.000 A 
ATOM     15  C   UNL     1     -15.637   3.954   4.228  0.00  0.00    +0.000 A 
ATOM     16  C   UNL     1     -14.155   3.526   2.390  0.00  0.00    +0.000 A 
ATOM     17  C   UNL     1     -14.345   3.790   3.739  0.00  0.00    +0.000 A 
ENDROOT
BRANCH  10  18
ATOM     18  O   UNL     1     -17.640   0.239  -1.005  0.00  0.00    +0.000 OA
ATOM     19  C   UNL     1     -18.988   0.460  -1.388  0.00  0.00    +0.000 C 
ENDBRANCH  10  18
BRANCH   8  20
ATOM     20  O   UNL     1     -18.297   5.461   4.352  0.00  0.00    +0.000 OA
ATOM     21  H   UNL     1     -19.252   5.645   4.353  0.00  0.00    +0.000 HD
ENDBRANCH   8  20
BRANCH  16  22
ATOM     22  O   UNL     1     -12.900   3.358   1.886  0.00  0.00    +0.000 OA
ATOM     23  C   UNL     1     -12.660   2.177   1.124  0.00  0.00    +0.000 C 
ENDBRANCH  16  22
BRANCH  17  24
ATOM     24  O   UNL     1     -13.287   3.895   4.586  0.00  0.00    +0.000 OA
ATOM     25  C   UNL     1     -13.580   4.036   5.975  0.00  0.00    +0.000 C 
ENDBRANCH  17  24
TORSDOF 4
ENDMDL
MODEL 8
REMARK VINA RESULT:      -5.1      1.737      5.416
REMARK  Name = ./IMPHY000007_3D.pdb
REMARK  7 active torsions:
REMARK  status: ('A' for Active; 'I' for Inactive)
REMARK    1  A    between atoms: O_1  and  C_14
REMARK    2  A    between atoms: O_1  and  C_22
REMARK    3  A    between atoms: O_2  and  C_12
REMARK    4  A    between atoms: O_3  and  C_20
REMARK    5  A    between atoms: O_3  and  C_23
REMARK    6  A    between atoms: O_4  and  C_21
REMARK    7  A    between atoms: O_4  and  C_24
REMARK                            x       y       z     vdW  Elec       q    Type
REMARK                         _______ _______ _______ _____ _____    ______ ____
ROOT
ATOM      1  N   UNL     1     -20.334   2.726   2.234  0.00  0.00    +0.000 NA
ATOM      2  C   UNL     1     -18.950   3.249   2.066  0.00  0.00    +0.000 C 
ATOM      3  C   UNL     1     -18.209   2.407   0.997  0.00  0.00    +0.000 C 
ATOM      4  C   UNL     1     -19.259   4.615   1.479  0.00  0.00    +0.000 C 
ATOM      5  C   UNL     1     -18.179   3.311   3.401  0.00  0.00    +0.000 A 
ATOM      6  C   UNL     1     -20.477   1.577   3.108  0.00  0.00    +0.000 C 
ATOM      7  C   UNL     1     -21.200   3.886   2.506  0.00  0.00    +0.000 C 
ATOM      8  C   UNL     1     -19.902   1.779   4.505  0.00  0.00    +0.000 C 
ATOM      9  C   UNL     1     -18.620   2.581   4.525  0.00  0.00    +0.000 A 
ATOM     10  C   UNL     1     -17.028   3.149   0.336  0.00  0.00    +0.000 C 
ATOM     11  C   UNL     1     -20.504   4.998   1.786  0.00  0.00    +0.000 C 
ATOM     12  C   UNL     1     -18.350   5.267   0.578  0.00  0.00    +0.000 C 
ATOM     13  C   UNL     1     -17.314   4.601   0.046  0.00  0.00    +0.000 C 
ATOM     14  C   UNL     1     -17.004   4.075   3.542  0.00  0.00    +0.000 A 
ATOM     15  C   UNL     1     -17.883   2.612   5.724  0.00  0.00    +0.000 A 
ATOM     16  C   UNL     1     -16.283   4.103   4.738  0.00  0.00    +0.000 A 
ATOM     17  C   UNL     1     -16.719   3.366   5.830  0.00  0.00    +0.000 A 
ENDROOT
BRANCH  10  18
ATOM     18  O   UNL     1     -16.713   2.499  -0.895  0.00  0.00    +0.000 OA
ATOM     19  C   UNL     1     -17.880   2.253  -1.664  0.00  0.00    +0.000 C 
ENDBRANCH  10  18
BRANCH   8  20
ATOM     20  O   UNL     1     -20.908   2.368   5.332  0.00  0.00    +0.000 OA
ATOM     21  H   UNL     1     -21.522   1.661   5.595  0.00  0.00    +0.000 HD
ENDBRANCH   8  20
BRANCH  16  22
ATOM     22  O   UNL     1     -15.145   4.848   4.813  0.00  0.00    +0.000 OA
ATOM     23  C   UNL     1     -13.962   4.285   4.250  0.00  0.00    +0.000 C 
ENDBRANCH  16  22
BRANCH  17  24
ATOM     24  O   UNL     1     -16.029   3.378   7.000  0.00  0.00    +0.000 OA
ATOM     25  C   UNL     1     -16.440   4.323   7.986  0.00  0.00    +0.000 C 
ENDBRANCH  17  24
TORSDOF 4
ENDMDL
MODEL 9
REMARK VINA RESULT:      -4.7     11.654     14.667
REMARK  Name = ./IMPHY000007_3D.pdb
REMARK  7 active torsions:
REMARK  status: ('A' for Active; 'I' for Inactive)
REMARK    1  A    between atoms: O_1  and  C_14
REMARK    2  A    between atoms: O_1  and  C_22
REMARK    3  A    between atoms: O_2  and  C_12
REMARK    4  A    between atoms: O_3  and  C_20
REMARK    5  A    between atoms: O_3  and  C_23
REMARK    6  A    between atoms: O_4  and  C_21
REMARK    7  A    between atoms: O_4  and  C_24
REMARK                            x       y       z     vdW  Elec       q    Type
REMARK                         _______ _______ _______ _____ _____    ______ ____
ROOT
ATOM      1  N   UNL     1     -28.396  11.821  10.431  0.00  0.00    +0.000 NA
ATOM      2  C   UNL     1     -27.904  10.595   9.745  0.00  0.00    +0.000 C 
ATOM      3  C   UNL     1     -29.078   9.601   9.565  0.00  0.00    +0.000 C 
ATOM      4  C   UNL     1     -27.552  11.181   8.389  0.00  0.00    +0.000 C 
ATOM      5  C   UNL     1     -26.702   9.957  10.471  0.00  0.00    +0.000 A 
ATOM      6  C   UNL     1     -28.491  11.746  11.876  0.00  0.00    +0.000 C 
ATOM      7  C   UNL     1     -27.646  12.957   9.868  0.00  0.00    +0.000 C 
ATOM      8  C   UNL     1     -27.195  11.335  12.567  0.00  0.00    +0.000 C 
ATOM      9  C   UNL     1     -26.409  10.288  11.812  0.00  0.00    +0.000 A 
ATOM     10  C   UNL     1     -28.861   8.588   8.420  0.00  0.00    +0.000 C 
ATOM     11  C   UNL     1     -27.343  12.500   8.476  0.00  0.00    +0.000 C 
ATOM     12  C   UNL     1     -27.628  10.394   7.189  0.00  0.00    +0.000 C 
ATOM     13  C   UNL     1     -28.229   9.193   7.193  0.00  0.00    +0.000 C 
ATOM     14  C   UNL     1     -25.870   9.013   9.838  0.00  0.00    +0.000 A 
ATOM     15  C   UNL     1     -25.335   9.666  12.477  0.00  0.00    +0.000 A 
ATOM     16  C   UNL     1     -24.805   8.405  10.506  0.00  0.00    +0.000 A 
ATOM     17  C   UNL     1     -24.539   8.728  11.829  0.00  0.00    +0.000 A 
ENDROOT
BRANCH  10  18
ATOM     18  O   UNL     1     -30.126   8.041   8.049  0.00  0.00    +0.000 OA
ATOM     19  C   UNL     1     -31.160   8.499   8.906  0.00  0.00    +0.000 C 
ENDBRANCH  10  18
BRANCH   8  20
ATOM     20  O   UNL     1     -26.417  12.509  12.812  0.00  0.00    +0.000 OA
ATOM     21  H   UNL     1     -25.668  12.500  12.191  0.00  0.00    +0.000 HD
ENDBRANCH   8  20
BRANCH  16  22
ATOM     22  O   UNL     1     -24.042   7.488   9.849  0.00  0.00    +0.000 OA
ATOM     23  C   UNL     1     -24.669   6.257   9.495  0.00  0.00    +0.000 C 
ENDBRANCH  16  22
BRANCH  17  24
ATOM     24  O   UNL     1     -23.509   8.144  12.497  0.00  0.00    +0.000 OA
ATOM     25  C   UNL     1     -23.695   7.898  13.889  0.00  0.00    +0.000 C 
ENDBRANCH  17  24
TORSDOF 4
ENDMDL
