MODEL 1
REMARK VINA RESULT:      -6.7      0.000      0.000
REMARK  Name = ./IMPHY000008_3D.pdb
REMARK  22 active torsions:
REMARK  status: ('A' for Active; 'I' for Inactive)
REMARK    1  A    between atoms: O_2  and  C_21
REMARK    2  A    between atoms: O_2  and  C_36
REMARK    3  A    between atoms: O_3  and  C_23
REMARK    4  A    between atoms: O_3  and  C_37
REMARK    5  A    between atoms: O_4  and  C_34
REMARK    6  A    between atoms: O_4  and  C_38
REMARK    7  A    between atoms: O_9  and  C_42
REMARK    8  A    between atoms: O_9  and  C_47
REMARK    9  A    between atoms: O_10  and  C_44
REMARK   10  A    between atoms: O_10  and  C_46
REMARK   11  A    between atoms: O_12  and  C_48
REMARK   12  A    between atoms: O_13  and  C_49
REMARK   13  A    between atoms: O_13  and  C_53
REMARK   14  A    between atoms: O_14  and  C_51
REMARK   15  A    between atoms: C_17  and  C_28
REMARK   16  A    between atoms: C_19  and  C_30
REMARK   17  A    between atoms: C_24  and  C_33
REMARK   18  A    between atoms: C_33  and  C_35
REMARK   19  A    between atoms: C_36  and  C_39
REMARK   20  A    between atoms: C_37  and  C_40
REMARK   21  A    between atoms: C_43  and  C_45
REMARK   22  A    between atoms: C_50  and  C_52
REMARK                            x       y       z     vdW  Elec       q    Type
REMARK                         _______ _______ _______ _____ _____    ______ ____
ROOT
ATOM      1  O   UNL     1     -18.430   3.555   3.897  0.00  0.00    +0.000 OA
ATOM      2  C   UNL     1     -18.272   3.834   2.520  0.00  0.00    +0.000 C 
ATOM      3  C   UNL     1     -17.351   4.453   3.572  0.00  0.00    +0.000 C 
ATOM      4  C   UNL     1     -17.961   2.603   1.679  0.00  0.00    +0.000 C 
ATOM      5  C   UNL     1     -15.904   3.994   3.622  0.00  0.00    +0.000 C 
ATOM      6  C   UNL     1     -15.399   3.865   5.113  0.00  0.00    +0.000 C 
ATOM      7  C   UNL     1     -19.168   4.739   1.760  0.00  0.00    +0.000 C 
ATOM      8  C   UNL     1     -16.638   1.927   2.159  0.00  0.00    +0.000 C 
ATOM      9  C   UNL     1     -17.598   5.773   4.264  0.00  0.00    +0.000 C 
ATOM     10  C   UNL     1     -15.525   2.905   2.579  0.00  0.00    +0.000 C 
ATOM     11  C   UNL     1     -18.091   3.188   0.210  0.00  0.00    +0.000 C 
ATOM     12  C   UNL     1     -15.666   5.249   5.809  0.00  0.00    +0.000 C 
ATOM     13  C   UNL     1     -18.501   4.670   0.389  0.00  0.00    +0.000 C 
ATOM     14  C   UNL     1     -17.135   5.692   5.722  0.00  0.00    +0.000 C 
ATOM     15  C   UNL     1     -19.125   1.574   1.830  0.00  0.00    +0.000 C 
ATOM     16  C   UNL     1     -13.862   3.636   5.176  0.00  0.00    +0.000 C 
ATOM     17  C   UNL     1     -16.091   2.699   5.847  0.00  0.00    +0.000 C 
ATOM     18  C   UNL     1     -15.144   5.308   7.252  0.00  0.00    +0.000 C 
ATOM     19  C   UNL     1     -13.291   3.711   6.594  0.00  0.00    +0.000 C 
ATOM     20  C   UNL     1     -13.640   5.015   7.315  0.00  0.00    +0.000 C 
ENDROOT
BRANCH  11  22
ATOM     21  O   UNL     1     -16.345   3.901  -1.301  0.00  0.00    +0.000 OA
ATOM     22  C   UNL     1     -16.965   2.964  -0.796  0.00  0.00    +0.000 C 
ATOM     23  C   UNL     1     -16.512   1.549  -1.061  0.00  0.00    +0.000 C 
ENDBRANCH  11  22
BRANCH   8  24
ATOM     24  O   UNL     1     -16.931   1.043   3.276  0.00  0.00    +0.000 OA
BRANCH  24  26
ATOM     25  O   UNL     1     -15.628  -0.501   4.370  0.00  0.00    +0.000 OA
ATOM     26  C   UNL     1     -16.197  -0.099   3.367  0.00  0.00    +0.000 C 
ATOM     27  C   UNL     1     -16.157  -0.792   2.038  0.00  0.00    +0.000 C 
ENDBRANCH  24  26
ENDBRANCH   8  24
BRANCH  10  28
ATOM     28  O   UNL     1     -15.101   3.587   1.362  0.00  0.00    +0.000 OA
BRANCH  28  30
ATOM     29  O   UNL     1     -13.274   2.718   0.266  0.00  0.00    +0.000 OA
ATOM     30  C   UNL     1     -13.777   3.508   1.048  0.00  0.00    +0.000 C 
ATOM     31  C   UNL     1     -13.005   4.532   1.823  0.00  0.00    +0.000 C 
ENDBRANCH  28  30
ENDBRANCH  10  28
BRANCH  20  32
ATOM     32  O   UNL     1     -13.186   4.872   8.664  0.00  0.00    +0.000 OA
BRANCH  32  34
ATOM     33  O   UNL     1     -14.088   6.494  10.106  0.00  0.00    +0.000 OA
ATOM     34  C   UNL     1     -14.171   5.148   9.658  0.00  0.00    +0.000 C 
ATOM     35  C   UNL     1     -13.893   4.221  10.830  0.00  0.00    +0.000 C 
ATOM     36  C   UNL     1     -14.889   4.445  11.967  0.00  0.00    +0.000 C 
ATOM     37  C   UNL     1     -15.111   6.803  11.053  0.00  0.00    +0.000 C 
ATOM     38  C   UNL     1     -14.996   5.946  12.332  0.00  0.00    +0.000 C 
ATOM     39  C   UNL     1     -14.998   8.292  11.370  0.00  0.00    +0.000 C 
BRANCH  36  40
ATOM     40  O   UNL     1     -14.443   3.715  13.126  0.00  0.00    +0.000 OA
ATOM     41  C   UNL     1     -13.154   4.109  13.580  0.00  0.00    +0.000 C 
ENDBRANCH  36  40
BRANCH  38  42
ATOM     42  O   UNL     1     -16.164   6.241  13.117  0.00  0.00    +0.000 OA
BRANCH  42  44
ATOM     43  O   UNL     1     -15.818   5.872  15.382  0.00  0.00    +0.000 OA
ATOM     44  C   UNL     1     -15.904   6.874  14.371  0.00  0.00    +0.000 C 
ATOM     45  C   UNL     1     -17.090   7.830  14.672  0.00  0.00    +0.000 C 
ATOM     46  C   UNL     1     -17.521   7.724  16.155  0.00  0.00    +0.000 C 
ATOM     47  C   UNL     1     -15.403   6.427  16.642  0.00  0.00    +0.000 C 
ATOM     48  C   UNL     1     -16.275   7.632  17.046  0.00  0.00    +0.000 C 
ATOM     49  C   UNL     1     -15.520   5.301  17.661  0.00  0.00    +0.000 C 
BRANCH  45  50
ATOM     50  O   UNL     1     -16.718   9.182  14.332  0.00  0.00    +0.000 OA
ATOM     51  H   UNL     1     -17.239   9.413  13.537  0.00  0.00    +0.000 HD
ENDBRANCH  45  50
BRANCH  46  52
ATOM     52  O   UNL     1     -18.281   8.860  16.613  0.00  0.00    +0.000 OA
ATOM     53  C   UNL     1     -18.982   8.609  17.826  0.00  0.00    +0.000 C 
ENDBRANCH  46  52
BRANCH  48  54
ATOM     54  O   UNL     1     -15.527   8.855  16.879  0.00  0.00    +0.000 OA
ATOM     55  H   UNL     1     -15.283   8.862  15.929  0.00  0.00    +0.000 HD
ENDBRANCH  48  54
ENDBRANCH  42  44
ENDBRANCH  38  42
ENDBRANCH  32  34
ENDBRANCH  20  32
TORSDOF 13
ENDMDL
MODEL 2
REMARK VINA RESULT:      -6.6      1.384      2.079
REMARK  Name = ./IMPHY000008_3D.pdb
REMARK  22 active torsions:
REMARK  status: ('A' for Active; 'I' for Inactive)
REMARK    1  A    between atoms: O_2  and  C_21
REMARK    2  A    between atoms: O_2  and  C_36
REMARK    3  A    between atoms: O_3  and  C_23
REMARK    4  A    between atoms: O_3  and  C_37
REMARK    5  A    between atoms: O_4  and  C_34
REMARK    6  A    between atoms: O_4  and  C_38
REMARK    7  A    between atoms: O_9  and  C_42
REMARK    8  A    between atoms: O_9  and  C_47
REMARK    9  A    between atoms: O_10  and  C_44
REMARK   10  A    between atoms: O_10  and  C_46
REMARK   11  A    between atoms: O_12  and  C_48
REMARK   12  A    between atoms: O_13  and  C_49
REMARK   13  A    between atoms: O_13  and  C_53
REMARK   14  A    between atoms: O_14  and  C_51
REMARK   15  A    between atoms: C_17  and  C_28
REMARK   16  A    between atoms: C_19  and  C_30
REMARK   17  A    between atoms: C_24  and  C_33
REMARK   18  A    between atoms: C_33  and  C_35
REMARK   19  A    between atoms: C_36  and  C_39
REMARK   20  A    between atoms: C_37  and  C_40
REMARK   21  A    between atoms: C_43  and  C_45
REMARK   22  A    between atoms: C_50  and  C_52
REMARK                            x       y       z     vdW  Elec       q    Type
REMARK                         _______ _______ _______ _____ _____    ______ ____
ROOT
ATOM      1  O   UNL     1     -18.559   3.734   4.014  0.00  0.00    +0.000 OA
ATOM      2  C   UNL     1     -18.416   3.982   2.629  0.00  0.00    +0.000 C 
ATOM      3  C   UNL     1     -17.428   4.549   3.649  0.00  0.00    +0.000 C 
ATOM      4  C   UNL     1     -18.213   2.721   1.801  0.00  0.00    +0.000 C 
ATOM      5  C   UNL     1     -16.016   3.990   3.671  0.00  0.00    +0.000 C 
ATOM      6  C   UNL     1     -15.484   3.846   5.152  0.00  0.00    +0.000 C 
ATOM      7  C   UNL     1     -19.265   4.938   1.878  0.00  0.00    +0.000 C 
ATOM      8  C   UNL     1     -16.930   1.960   2.260  0.00  0.00    +0.000 C 
ATOM      9  C   UNL     1     -17.564   5.893   4.326  0.00  0.00    +0.000 C 
ATOM     10  C   UNL     1     -15.740   2.863   2.637  0.00  0.00    +0.000 C 
ATOM     11  C   UNL     1     -18.339   3.293   0.327  0.00  0.00    +0.000 C 
ATOM     12  C   UNL     1     -15.635   5.256   5.832  0.00  0.00    +0.000 C 
ATOM     13  C   UNL     1     -18.639   4.802   0.492  0.00  0.00    +0.000 C 
ATOM     14  C   UNL     1     -17.070   5.800   5.774  0.00  0.00    +0.000 C 
ATOM     15  C   UNL     1     -19.443   1.779   1.996  0.00  0.00    +0.000 C 
ATOM     16  C   UNL     1     -13.966   3.510   5.181  0.00  0.00    +0.000 C 
ATOM     17  C   UNL     1     -16.237   2.742   5.921  0.00  0.00    +0.000 C 
ATOM     18  C   UNL     1     -15.074   5.298   7.261  0.00  0.00    +0.000 C 
ATOM     19  C   UNL     1     -13.355   3.564   6.584  0.00  0.00    +0.000 C 
ATOM     20  C   UNL     1     -13.593   4.900   7.292  0.00  0.00    +0.000 C 
ENDROOT
BRANCH  11  22
ATOM     21  O   UNL     1     -16.554   3.854  -1.202  0.00  0.00    +0.000 OA
ATOM     22  C   UNL     1     -17.257   2.976  -0.703  0.00  0.00    +0.000 C 
ATOM     23  C   UNL     1     -16.953   1.528  -0.999  0.00  0.00    +0.000 C 
ENDBRANCH  11  22
BRANCH   8  24
ATOM     24  O   UNL     1     -17.256   1.114   3.398  0.00  0.00    +0.000 OA
BRANCH  24  26
ATOM     25  O   UNL     1     -16.086  -0.519   4.512  0.00  0.00    +0.000 OA
ATOM     26  C   UNL     1     -16.593  -0.070   3.495  0.00  0.00    +0.000 C 
ATOM     27  C   UNL     1     -16.543  -0.744   2.158  0.00  0.00    +0.000 C 
ENDBRANCH  24  26
ENDBRANCH   8  24
BRANCH  10  28
ATOM     28  O   UNL     1     -15.300   3.496   1.399  0.00  0.00    +0.000 OA
BRANCH  28  30
ATOM     29  O   UNL     1     -13.349   4.651   1.012  0.00  0.00    +0.000 OA
ATOM     30  C   UNL     1     -13.955   3.612   1.220  0.00  0.00    +0.000 C 
ATOM     31  C   UNL     1     -13.309   2.263   1.295  0.00  0.00    +0.000 C 
ENDBRANCH  28  30
ENDBRANCH  10  28
BRANCH  20  32
ATOM     32  O   UNL     1     -13.117   4.744   8.633  0.00  0.00    +0.000 OA
BRANCH  32  34
ATOM     33  O   UNL     1     -13.747   6.685   9.798  0.00  0.00    +0.000 OA
ATOM     34  C   UNL     1     -13.969   5.291   9.637  0.00  0.00    +0.000 C 
ATOM     35  C   UNL     1     -13.633   4.585  10.940  0.00  0.00    +0.000 C 
ATOM     36  C   UNL     1     -14.484   5.108  12.095  0.00  0.00    +0.000 C 
ATOM     37  C   UNL     1     -14.639   7.259  10.753  0.00  0.00    +0.000 C 
ATOM     38  C   UNL     1     -14.448   6.656  12.162  0.00  0.00    +0.000 C 
ATOM     39  C   UNL     1     -14.392   8.765  10.755  0.00  0.00    +0.000 C 
BRANCH  36  40
ATOM     40  O   UNL     1     -13.968   4.578  13.331  0.00  0.00    +0.000 OA
ATOM     41  C   UNL     1     -12.554   4.421  13.332  0.00  0.00    +0.000 C 
ENDBRANCH  36  40
BRANCH  38  42
ATOM     42  O   UNL     1     -15.503   7.197  12.975  0.00  0.00    +0.000 OA
BRANCH  42  44
ATOM     43  O   UNL     1     -17.622   6.674  12.182  0.00  0.00    +0.000 OA
ATOM     44  C   UNL     1     -16.630   6.338  13.151  0.00  0.00    +0.000 C 
ATOM     45  C   UNL     1     -17.186   6.575  14.582  0.00  0.00    +0.000 C 
ATOM     46  C   UNL     1     -18.732   6.645  14.569  0.00  0.00    +0.000 C 
ATOM     47  C   UNL     1     -18.718   5.744  12.204  0.00  0.00    +0.000 C 
ATOM     48  C   UNL     1     -19.286   5.568  13.626  0.00  0.00    +0.000 C 
ATOM     49  C   UNL     1     -19.772   6.310  11.260  0.00  0.00    +0.000 C 
BRANCH  45  50
ATOM     50  O   UNL     1     -16.717   5.531  15.460  0.00  0.00    +0.000 OA
ATOM     51  H   UNL     1     -17.421   5.404  16.128  0.00  0.00    +0.000 HD
ENDBRANCH  45  50
BRANCH  46  52
ATOM     52  O   UNL     1     -19.326   6.416  15.862  0.00  0.00    +0.000 OA
ATOM     53  C   UNL     1     -20.680   6.849  15.938  0.00  0.00    +0.000 C 
ENDBRANCH  46  52
BRANCH  48  54
ATOM     54  O   UNL     1     -18.896   4.283  14.153  0.00  0.00    +0.000 OA
ATOM     55  H   UNL     1     -17.916   4.288  14.102  0.00  0.00    +0.000 HD
ENDBRANCH  48  54
ENDBRANCH  42  44
ENDBRANCH  38  42
ENDBRANCH  32  34
ENDBRANCH  20  32
TORSDOF 13
ENDMDL
MODEL 3
REMARK VINA RESULT:      -6.6      7.806     12.194
REMARK  Name = ./IMPHY000008_3D.pdb
REMARK  22 active torsions:
REMARK  status: ('A' for Active; 'I' for Inactive)
REMARK    1  A    between atoms: O_2  and  C_21
REMARK    2  A    between atoms: O_2  and  C_36
REMARK    3  A    between atoms: O_3  and  C_23
REMARK    4  A    between atoms: O_3  and  C_37
REMARK    5  A    between atoms: O_4  and  C_34
REMARK    6  A    between atoms: O_4  and  C_38
REMARK    7  A    between atoms: O_9  and  C_42
REMARK    8  A    between atoms: O_9  and  C_47
REMARK    9  A    between atoms: O_10  and  C_44
REMARK   10  A    between atoms: O_10  and  C_46
REMARK   11  A    between atoms: O_12  and  C_48
REMARK   12  A    between atoms: O_13  and  C_49
REMARK   13  A    between atoms: O_13  and  C_53
REMARK   14  A    between atoms: O_14  and  C_51
REMARK   15  A    between atoms: C_17  and  C_28
REMARK   16  A    between atoms: C_19  and  C_30
REMARK   17  A    between atoms: C_24  and  C_33
REMARK   18  A    between atoms: C_33  and  C_35
REMARK   19  A    between atoms: C_36  and  C_39
REMARK   20  A    between atoms: C_37  and  C_40
REMARK   21  A    between atoms: C_43  and  C_45
REMARK   22  A    between atoms: C_50  and  C_52
REMARK                            x       y       z     vdW  Elec       q    Type
REMARK                         _______ _______ _______ _____ _____    ______ ____
ROOT
ATOM      1  O   UNL     1     -26.250   9.171  13.345  0.00  0.00    +0.000 OA
ATOM      2  C   UNL     1     -26.677  10.130  12.397  0.00  0.00    +0.000 C 
ATOM      3  C   UNL     1     -25.283   9.504  12.329  0.00  0.00    +0.000 C 
ATOM      4  C   UNL     1     -27.890   9.689  11.589  0.00  0.00    +0.000 C 
ATOM      5  C   UNL     1     -24.980   8.545  11.190  0.00  0.00    +0.000 C 
ATOM      6  C   UNL     1     -24.098   7.333  11.686  0.00  0.00    +0.000 C 
ATOM      7  C   UNL     1     -26.774  11.581  12.687  0.00  0.00    +0.000 C 
ATOM      8  C   UNL     1     -27.582   8.378  10.800  0.00  0.00    +0.000 C 
ATOM      9  C   UNL     1     -24.052  10.066  13.000  0.00  0.00    +0.000 C 
ATOM     10  C   UNL     1     -26.161   8.294  10.211  0.00  0.00    +0.000 C 
ATOM     11  C   UNL     1     -28.260  11.031  10.827  0.00  0.00    +0.000 C 
ATOM     12  C   UNL     1     -22.825   7.944  12.378  0.00  0.00    +0.000 C 
ATOM     13  C   UNL     1     -27.241  12.085  11.324  0.00  0.00    +0.000 C 
ATOM     14  C   UNL     1     -23.169   8.923  13.511  0.00  0.00    +0.000 C 
ATOM     15  C   UNL     1     -29.079   9.413  12.562  0.00  0.00    +0.000 C 
ATOM     16  C   UNL     1     -23.578   6.481  10.493  0.00  0.00    +0.000 C 
ATOM     17  C   UNL     1     -24.889   6.406  12.632  0.00  0.00    +0.000 C 
ATOM     18  C   UNL     1     -21.820   6.878  12.840  0.00  0.00    +0.000 C 
ATOM     19  C   UNL     1     -22.552   5.420  10.902  0.00  0.00    +0.000 C 
ATOM     20  C   UNL     1     -21.361   5.998  11.670  0.00  0.00    +0.000 C 
ENDROOT
BRANCH  11  22
ATOM     21  O   UNL     1     -29.248  10.241   8.769  0.00  0.00    +0.000 OA
ATOM     22  C   UNL     1     -28.458  11.012   9.313  0.00  0.00    +0.000 C 
ATOM     23  C   UNL     1     -27.767  12.069   8.487  0.00  0.00    +0.000 C 
ENDBRANCH  11  22
BRANCH   8  24
ATOM     24  O   UNL     1     -27.795   7.233  11.672  0.00  0.00    +0.000 OA
BRANCH  24  26
ATOM     25  O   UNL     1     -27.917   4.966  11.320  0.00  0.00    +0.000 OA
ATOM     26  C   UNL     1     -28.296   6.106  11.097  0.00  0.00    +0.000 C 
ATOM     27  C   UNL     1     -29.372   6.462  10.118  0.00  0.00    +0.000 C 
ENDBRANCH  24  26
ENDBRANCH   8  24
BRANCH  10  28
ATOM     28  O   UNL     1     -26.092   9.309   9.165  0.00  0.00    +0.000 OA
BRANCH  28  30
ATOM     29  O   UNL     1     -25.761   9.513   6.898  0.00  0.00    +0.000 OA
ATOM     30  C   UNL     1     -26.073   8.858   7.880  0.00  0.00    +0.000 C 
ATOM     31  C   UNL     1     -26.512   7.427   7.831  0.00  0.00    +0.000 C 
ENDBRANCH  28  30
ENDBRANCH  10  28
BRANCH  20  32
ATOM     32  O   UNL     1     -20.585   4.885  12.122  0.00  0.00    +0.000 OA
BRANCH  32  34
ATOM     33  O   UNL     1     -18.829   6.195  11.270  0.00  0.00    +0.000 OA
ATOM     34  C   UNL     1     -19.220   4.901  11.707  0.00  0.00    +0.000 C 
ATOM     35  C   UNL     1     -19.096   3.929  10.545  0.00  0.00    +0.000 C 
ATOM     36  C   UNL     1     -17.666   3.879  10.010  0.00  0.00    +0.000 C 
ATOM     37  C   UNL     1     -17.447   6.241  10.916  0.00  0.00    +0.000 C 
ATOM     38  C   UNL     1     -17.119   5.302   9.735  0.00  0.00    +0.000 C 
ATOM     39  C   UNL     1     -17.115   7.693  10.580  0.00  0.00    +0.000 C 
BRANCH  36  40
ATOM     40  O   UNL     1     -17.656   3.131   8.779  0.00  0.00    +0.000 OA
ATOM     41  C   UNL     1     -17.420   1.741   8.964  0.00  0.00    +0.000 C 
ENDBRANCH  36  40
BRANCH  38  42
ATOM     42  O   UNL     1     -15.689   5.325   9.592  0.00  0.00    +0.000 OA
BRANCH  42  44
ATOM     43  O   UNL     1     -16.340   5.615   7.383  0.00  0.00    +0.000 OA
ATOM     44  C   UNL     1     -15.218   5.447   8.249  0.00  0.00    +0.000 C 
ATOM     45  C   UNL     1     -14.465   4.137   7.891  0.00  0.00    +0.000 C 
ATOM     46  C   UNL     1     -14.836   3.657   6.468  0.00  0.00    +0.000 C 
ATOM     47  C   UNL     1     -15.928   5.899   6.035  0.00  0.00    +0.000 C 
ATOM     48  C   UNL     1     -14.907   4.864   5.522  0.00  0.00    +0.000 C 
ATOM     49  C   UNL     1     -17.197   5.881   5.191  0.00  0.00    +0.000 C 
BRANCH  45  50
ATOM     50  O   UNL     1     -13.043   4.350   8.017  0.00  0.00    +0.000 OA
ATOM     51  H   UNL     1     -12.807   4.066   8.923  0.00  0.00    +0.000 HD
ENDBRANCH  45  50
BRANCH  46  52
ATOM     52  O   UNL     1     -13.878   2.740   5.904  0.00  0.00    +0.000 OA
ATOM     53  C   UNL     1     -14.363   2.068   4.747  0.00  0.00    +0.000 C 
ENDBRANCH  46  52
BRANCH  48  54
ATOM     54  O   UNL     1     -13.593   5.458   5.471  0.00  0.00    +0.000 OA
ATOM     55  H   UNL     1     -13.070   4.944   6.122  0.00  0.00    +0.000 HD
ENDBRANCH  48  54
ENDBRANCH  42  44
ENDBRANCH  38  42
ENDBRANCH  32  34
ENDBRANCH  20  32
TORSDOF 13
ENDMDL
MODEL 4
REMARK VINA RESULT:      -6.4      7.733     11.535
REMARK  Name = ./IMPHY000008_3D.pdb
REMARK  22 active torsions:
REMARK  status: ('A' for Active; 'I' for Inactive)
REMARK    1  A    between atoms: O_2  and  C_21
REMARK    2  A    between atoms: O_2  and  C_36
REMARK    3  A    between atoms: O_3  and  C_23
REMARK    4  A    between atoms: O_3  and  C_37
REMARK    5  A    between atoms: O_4  and  C_34
REMARK    6  A    between atoms: O_4  and  C_38
REMARK    7  A    between atoms: O_9  and  C_42
REMARK    8  A    between atoms: O_9  and  C_47
REMARK    9  A    between atoms: O_10  and  C_44
REMARK   10  A    between atoms: O_10  and  C_46
REMARK   11  A    between atoms: O_12  and  C_48
REMARK   12  A    between atoms: O_13  and  C_49
REMARK   13  A    between atoms: O_13  and  C_53
REMARK   14  A    between atoms: O_14  and  C_51
REMARK   15  A    between atoms: C_17  and  C_28
REMARK   16  A    between atoms: C_19  and  C_30
REMARK   17  A    between atoms: C_24  and  C_33
REMARK   18  A    between atoms: C_33  and  C_35
REMARK   19  A    between atoms: C_36  and  C_39
REMARK   20  A    between atoms: C_37  and  C_40
REMARK   21  A    between atoms: C_43  and  C_45
REMARK   22  A    between atoms: C_50  and  C_52
REMARK                            x       y       z     vdW  Elec       q    Type
REMARK                         _______ _______ _______ _____ _____    ______ ____
ROOT
ATOM      1  O   UNL     1     -26.208   9.119  13.344  0.00  0.00    +0.000 OA
ATOM      2  C   UNL     1     -26.667  10.058  12.392  0.00  0.00    +0.000 C 
ATOM      3  C   UNL     1     -25.253   9.481  12.326  0.00  0.00    +0.000 C 
ATOM      4  C   UNL     1     -27.864   9.573  11.584  0.00  0.00    +0.000 C 
ATOM      5  C   UNL     1     -24.916   8.529  11.191  0.00  0.00    +0.000 C 
ATOM      6  C   UNL     1     -23.993   7.350  11.693  0.00  0.00    +0.000 C 
ATOM      7  C   UNL     1     -26.815  11.506  12.677  0.00  0.00    +0.000 C 
ATOM      8  C   UNL     1     -27.510   8.271  10.801  0.00  0.00    +0.000 C 
ATOM      9  C   UNL     1     -24.042  10.087  12.996  0.00  0.00    +0.000 C 
ATOM     10  C   UNL     1     -26.087   8.234  10.212  0.00  0.00    +0.000 C 
ATOM     11  C   UNL     1     -28.280  10.899  10.818  0.00  0.00    +0.000 C 
ATOM     12  C   UNL     1     -22.742   8.007  12.383  0.00  0.00    +0.000 C 
ATOM     13  C   UNL     1     -27.298  11.989  11.311  0.00  0.00    +0.000 C 
ATOM     14  C   UNL     1     -23.120   8.978  13.512  0.00  0.00    +0.000 C 
ATOM     15  C   UNL     1     -29.043   9.260  12.558  0.00  0.00    +0.000 C 
ATOM     16  C   UNL     1     -23.442   6.512  10.503  0.00  0.00    +0.000 C 
ATOM     17  C   UNL     1     -24.751   6.400  12.641  0.00  0.00    +0.000 C 
ATOM     18  C   UNL     1     -21.701   6.978  12.849  0.00  0.00    +0.000 C 
ATOM     19  C   UNL     1     -22.382   5.489  10.916  0.00  0.00    +0.000 C 
ATOM     20  C   UNL     1     -21.212   6.111  11.683  0.00  0.00    +0.000 C 
ENDROOT
BRANCH  11  22
ATOM     21  O   UNL     1     -29.240  10.069   8.762  0.00  0.00    +0.000 OA
ATOM     22  C   UNL     1     -28.476  10.867   9.304  0.00  0.00    +0.000 C 
ATOM     23  C   UNL     1     -27.819  11.943   8.474  0.00  0.00    +0.000 C 
ENDBRANCH  11  22
BRANCH   8  24
ATOM     24  O   UNL     1     -27.685   7.123  11.677  0.00  0.00    +0.000 OA
BRANCH  24  26
ATOM     25  O   UNL     1     -27.635   4.861  11.277  0.00  0.00    +0.000 OA
ATOM     26  C   UNL     1     -28.119   5.969  11.101  0.00  0.00    +0.000 C 
ATOM     27  C   UNL     1     -29.271   6.252  10.186  0.00  0.00    +0.000 C 
ENDBRANCH  24  26
ENDBRANCH   8  24
BRANCH  10  28
ATOM     28  O   UNL     1     -26.053   9.246   9.163  0.00  0.00    +0.000 OA
BRANCH  28  30
ATOM     29  O   UNL     1     -25.764   9.446   6.889  0.00  0.00    +0.000 OA
ATOM     30  C   UNL     1     -26.056   8.793   7.879  0.00  0.00    +0.000 C 
ATOM     31  C   UNL     1     -26.494   7.361   7.842  0.00  0.00    +0.000 C 
ENDBRANCH  28  30
ENDBRANCH  10  28
BRANCH  20  32
ATOM     32  O   UNL     1     -20.397   5.026  12.138  0.00  0.00    +0.000 OA
BRANCH  32  34
ATOM     33  O   UNL     1     -18.452   3.732  11.888  0.00  0.00    +0.000 OA
ATOM     34  C   UNL     1     -19.291   4.713  11.294  0.00  0.00    +0.000 C 
ATOM     35  C   UNL     1     -18.496   5.994  11.107  0.00  0.00    +0.000 C 
ATOM     36  C   UNL     1     -17.271   5.766  10.223  0.00  0.00    +0.000 C 
ATOM     37  C   UNL     1     -17.378   3.359  11.024  0.00  0.00    +0.000 C 
ATOM     38  C   UNL     1     -16.446   4.549  10.711  0.00  0.00    +0.000 C 
ATOM     39  C   UNL     1     -16.620   2.225  11.710  0.00  0.00    +0.000 C 
BRANCH  36  40
ATOM     40  O   UNL     1     -16.439   6.941  10.271  0.00  0.00    +0.000 OA
ATOM     41  C   UNL     1     -17.068   8.055  10.892  0.00  0.00    +0.000 C 
ENDBRANCH  36  40
BRANCH  38  42
ATOM     42  O   UNL     1     -15.518   4.079   9.718  0.00  0.00    +0.000 OA
BRANCH  42  44
ATOM     43  O   UNL     1     -13.672   2.832  10.373  0.00  0.00    +0.000 OA
ATOM     44  C   UNL     1     -14.142   4.151  10.097  0.00  0.00    +0.000 C 
ATOM     45  C   UNL     1     -14.049   5.025  11.377  0.00  0.00    +0.000 C 
ATOM     46  C   UNL     1     -13.078   4.396  12.406  0.00  0.00    +0.000 C 
ATOM     47  C   UNL     1     -12.254   2.816  10.609  0.00  0.00    +0.000 C 
ATOM     48  C   UNL     1     -11.843   3.849  11.677  0.00  0.00    +0.000 C 
ATOM     49  C   UNL     1     -11.915   1.400  11.058  0.00  0.00    +0.000 C 
BRANCH  45  50
ATOM     50  O   UNL     1     -13.639   6.361  11.020  0.00  0.00    +0.000 OA
ATOM     51  H   UNL     1     -12.825   6.259  10.486  0.00  0.00    +0.000 HD
ENDBRANCH  45  50
BRANCH  46  52
ATOM     52  O   UNL     1     -12.601   5.334  13.391  0.00  0.00    +0.000 OA
ATOM     53  C   UNL     1     -13.344   5.294  14.604  0.00  0.00    +0.000 C 
ENDBRANCH  46  52
BRANCH  48  54
ATOM     54  O   UNL     1     -11.177   4.963  11.048  0.00  0.00    +0.000 OA
ATOM     55  H   UNL     1     -10.289   4.982  11.464  0.00  0.00    +0.000 HD
ENDBRANCH  48  54
ENDBRANCH  42  44
ENDBRANCH  38  42
ENDBRANCH  32  34
ENDBRANCH  20  32
TORSDOF 13
ENDMDL
MODEL 5
REMARK VINA RESULT:      -6.3      8.325     12.101
REMARK  Name = ./IMPHY000008_3D.pdb
REMARK  22 active torsions:
REMARK  status: ('A' for Active; 'I' for Inactive)
REMARK    1  A    between atoms: O_2  and  C_21
REMARK    2  A    between atoms: O_2  and  C_36
REMARK    3  A    between atoms: O_3  and  C_23
REMARK    4  A    between atoms: O_3  and  C_37
REMARK    5  A    between atoms: O_4  and  C_34
REMARK    6  A    between atoms: O_4  and  C_38
REMARK    7  A    between atoms: O_9  and  C_42
REMARK    8  A    between atoms: O_9  and  C_47
REMARK    9  A    between atoms: O_10  and  C_44
REMARK   10  A    between atoms: O_10  and  C_46
REMARK   11  A    between atoms: O_12  and  C_48
REMARK   12  A    between atoms: O_13  and  C_49
REMARK   13  A    between atoms: O_13  and  C_53
REMARK   14  A    between atoms: O_14  and  C_51
REMARK   15  A    between atoms: C_17  and  C_28
REMARK   16  A    between atoms: C_19  and  C_30
REMARK   17  A    between atoms: C_24  and  C_33
REMARK   18  A    between atoms: C_33  and  C_35
REMARK   19  A    between atoms: C_36  and  C_39
REMARK   20  A    between atoms: C_37  and  C_40
REMARK   21  A    between atoms: C_43  and  C_45
REMARK   22  A    between atoms: C_50  and  C_52
REMARK                            x       y       z     vdW  Elec       q    Type
REMARK                         _______ _______ _______ _____ _____    ______ ____
ROOT
ATOM      1  O   UNL     1     -26.975   9.638  13.218  0.00  0.00    +0.000 OA
ATOM      2  C   UNL     1     -27.146  10.638  12.233  0.00  0.00    +0.000 C 
ATOM      3  C   UNL     1     -25.896   9.758  12.270  0.00  0.00    +0.000 C 
ATOM      4  C   UNL     1     -28.362  10.418  11.344  0.00  0.00    +0.000 C 
ATOM      5  C   UNL     1     -25.703   8.734  11.165  0.00  0.00    +0.000 C 
ATOM      6  C   UNL     1     -25.105   7.388  11.734  0.00  0.00    +0.000 C 
ATOM      7  C   UNL     1     -26.984  12.088  12.503  0.00  0.00    +0.000 C 
ATOM      8  C   UNL     1     -28.256   9.054  10.591  0.00  0.00    +0.000 C 
ATOM      9  C   UNL     1     -24.629  10.091  13.023  0.00  0.00    +0.000 C 
ATOM     10  C   UNL     1     -26.840   8.690  10.106  0.00  0.00    +0.000 C 
ATOM     11  C   UNL     1     -28.416  11.788  10.546  0.00  0.00    +0.000 C 
ATOM     12  C   UNL     1     -23.789   7.762  12.510  0.00  0.00    +0.000 C 
ATOM     13  C   UNL     1     -27.252  12.640  11.104  0.00  0.00    +0.000 C 
ATOM     14  C   UNL     1     -24.017   8.814  13.607  0.00  0.00    +0.000 C 
ATOM     15  C   UNL     1     -29.646  10.394  12.232  0.00  0.00    +0.000 C 
ATOM     16  C   UNL     1     -24.676   6.426  10.589  0.00  0.00    +0.000 C 
ATOM     17  C   UNL     1     -26.121   6.649  12.629  0.00  0.00    +0.000 C 
ATOM     18  C   UNL     1     -23.040   6.536  13.052  0.00  0.00    +0.000 C 
ATOM     19  C   UNL     1     -23.902   5.200  11.080  0.00  0.00    +0.000 C 
ATOM     20  C   UNL     1     -22.678   5.559  11.926  0.00  0.00    +0.000 C 
ENDROOT
BRANCH  11  22
ATOM     21  O   UNL     1     -29.405  11.169   8.429  0.00  0.00    +0.000 OA
ATOM     22  C   UNL     1     -28.510  11.772   9.022  0.00  0.00    +0.000 C 
ATOM     23  C   UNL     1     -27.559  12.642   8.237  0.00  0.00    +0.000 C 
ENDBRANCH  11  22
BRANCH   8  24
ATOM     24  O   UNL     1     -28.744   7.991  11.456  0.00  0.00    +0.000 OA
BRANCH  24  26
ATOM     25  O   UNL     1     -28.998   5.776  10.902  0.00  0.00    +0.000 OA
ATOM     26  C   UNL     1     -29.363   6.941  10.852  0.00  0.00    +0.000 C 
ATOM     27  C   UNL     1     -30.555   7.421  10.081  0.00  0.00    +0.000 C 
ENDBRANCH  24  26
ENDBRANCH   8  24
BRANCH  10  28
ATOM     28  O   UNL     1     -26.508   9.649   9.059  0.00  0.00    +0.000 OA
BRANCH  28  30
ATOM     29  O   UNL     1     -25.731   9.742   6.895  0.00  0.00    +0.000 OA
ATOM     30  C   UNL     1     -26.238   9.136   7.826  0.00  0.00    +0.000 C 
ATOM     31  C   UNL     1     -26.673   7.704   7.760  0.00  0.00    +0.000 C 
ENDBRANCH  28  30
ENDBRANCH  10  28
BRANCH  20  32
ATOM     32  O   UNL     1     -22.161   4.329  12.442  0.00  0.00    +0.000 OA
BRANCH  32  34
ATOM     33  O   UNL     1     -20.073   5.378  12.688  0.00  0.00    +0.000 OA
ATOM     34  C   UNL     1     -20.747   4.180  12.328  0.00  0.00    +0.000 C 
ATOM     35  C   UNL     1     -20.448   3.864  10.872  0.00  0.00    +0.000 C 
ATOM     36  C   UNL     1     -18.949   3.698  10.633  0.00  0.00    +0.000 C 
ATOM     37  C   UNL     1     -18.654   5.222  12.643  0.00  0.00    +0.000 C 
ATOM     38  C   UNL     1     -18.152   4.889  11.221  0.00  0.00    +0.000 C 
ATOM     39  C   UNL     1     -18.041   6.522  13.159  0.00  0.00    +0.000 C 
BRANCH  36  40
ATOM     40  O   UNL     1     -18.708   3.633   9.215  0.00  0.00    +0.000 OA
ATOM     41  C   UNL     1     -19.408   2.577   8.570  0.00  0.00    +0.000 C 
ENDBRANCH  36  40
BRANCH  38  42
ATOM     42  O   UNL     1     -16.749   4.604  11.351  0.00  0.00    +0.000 OA
BRANCH  42  44
ATOM     43  O   UNL     1     -14.652   4.468  10.362  0.00  0.00    +0.000 OA
ATOM     44  C   UNL     1     -15.933   5.092  10.284  0.00  0.00    +0.000 C 
ATOM     45  C   UNL     1     -15.786   6.627  10.466  0.00  0.00    +0.000 C 
ATOM     46  C   UNL     1     -14.327   7.076  10.212  0.00  0.00    +0.000 C 
ATOM     47  C   UNL     1     -13.835   4.797   9.226  0.00  0.00    +0.000 C 
ATOM     48  C   UNL     1     -13.761   6.321   9.001  0.00  0.00    +0.000 C 
ATOM     49  C   UNL     1     -12.454   4.220   9.516  0.00  0.00    +0.000 C 
BRANCH  45  50
ATOM     50  O   UNL     1     -16.703   7.307   9.583  0.00  0.00    +0.000 OA
ATOM     51  H   UNL     1     -17.518   7.456  10.104  0.00  0.00    +0.000 HD
ENDBRANCH  45  50
BRANCH  46  52
ATOM     52  O   UNL     1     -14.202   8.482   9.923  0.00  0.00    +0.000 OA
ATOM     53  C   UNL     1     -14.261   9.298  11.087  0.00  0.00    +0.000 C 
ENDBRANCH  46  52
BRANCH  48  54
ATOM     54  O   UNL     1     -14.553   6.683   7.851  0.00  0.00    +0.000 OA
ATOM     55  H   UNL     1     -15.316   7.171   8.226  0.00  0.00    +0.000 HD
ENDBRANCH  48  54
ENDBRANCH  42  44
ENDBRANCH  38  42
ENDBRANCH  32  34
ENDBRANCH  20  32
TORSDOF 13
ENDMDL
MODEL 6
REMARK VINA RESULT:      -6.3      7.866     12.309
REMARK  Name = ./IMPHY000008_3D.pdb
REMARK  22 active torsions:
REMARK  status: ('A' for Active; 'I' for Inactive)
REMARK    1  A    between atoms: O_2  and  C_21
REMARK    2  A    between atoms: O_2  and  C_36
REMARK    3  A    between atoms: O_3  and  C_23
REMARK    4  A    between atoms: O_3  and  C_37
REMARK    5  A    between atoms: O_4  and  C_34
REMARK    6  A    between atoms: O_4  and  C_38
REMARK    7  A    between atoms: O_9  and  C_42
REMARK    8  A    between atoms: O_9  and  C_47
REMARK    9  A    between atoms: O_10  and  C_44
REMARK   10  A    between atoms: O_10  and  C_46
REMARK   11  A    between atoms: O_12  and  C_48
REMARK   12  A    between atoms: O_13  and  C_49
REMARK   13  A    between atoms: O_13  and  C_53
REMARK   14  A    between atoms: O_14  and  C_51
REMARK   15  A    between atoms: C_17  and  C_28
REMARK   16  A    between atoms: C_19  and  C_30
REMARK   17  A    between atoms: C_24  and  C_33
REMARK   18  A    between atoms: C_33  and  C_35
REMARK   19  A    between atoms: C_36  and  C_39
REMARK   20  A    between atoms: C_37  and  C_40
REMARK   21  A    between atoms: C_43  and  C_45
REMARK   22  A    between atoms: C_50  and  C_52
REMARK                            x       y       z     vdW  Elec       q    Type
REMARK                         _______ _______ _______ _____ _____    ______ ____
ROOT
ATOM      1  O   UNL     1     -26.392   9.380  13.382  0.00  0.00    +0.000 OA
ATOM      2  C   UNL     1     -26.817  10.323  12.419  0.00  0.00    +0.000 C 
ATOM      3  C   UNL     1     -25.423   9.696  12.363  0.00  0.00    +0.000 C 
ATOM      4  C   UNL     1     -28.028   9.871  11.615  0.00  0.00    +0.000 C 
ATOM      5  C   UNL     1     -25.118   8.720  11.240  0.00  0.00    +0.000 C 
ATOM      6  C   UNL     1     -24.238   7.514  11.757  0.00  0.00    +0.000 C 
ATOM      7  C   UNL     1     -26.914  11.779  12.686  0.00  0.00    +0.000 C 
ATOM      8  C   UNL     1     -27.719   8.548  10.847  0.00  0.00    +0.000 C 
ATOM      9  C   UNL     1     -24.193  10.267  13.028  0.00  0.00    +0.000 C 
ATOM     10  C   UNL     1     -26.297   8.454  10.262  0.00  0.00    +0.000 C 
ATOM     11  C   UNL     1     -28.396  11.202  10.832  0.00  0.00    +0.000 C 
ATOM     12  C   UNL     1     -22.966   8.135  12.442  0.00  0.00    +0.000 C 
ATOM     13  C   UNL     1     -27.377  12.262  11.314  0.00  0.00    +0.000 C 
ATOM     14  C   UNL     1     -23.312   9.132  13.559  0.00  0.00    +0.000 C 
ATOM     15  C   UNL     1     -29.220   9.611  12.590  0.00  0.00    +0.000 C 
ATOM     16  C   UNL     1     -23.716   6.644  10.578  0.00  0.00    +0.000 C 
ATOM     17  C   UNL     1     -25.031   6.603  12.715  0.00  0.00    +0.000 C 
ATOM     18  C   UNL     1     -21.963   7.076  12.923  0.00  0.00    +0.000 C 
ATOM     19  C   UNL     1     -22.692   5.589  11.006  0.00  0.00    +0.000 C 
ATOM     20  C   UNL     1     -21.502   6.178  11.767  0.00  0.00    +0.000 C 
ENDROOT
BRANCH  11  22
ATOM     21  O   UNL     1     -29.391  10.390   8.785  0.00  0.00    +0.000 OA
ATOM     22  C   UNL     1     -28.591  11.159   9.318  0.00  0.00    +0.000 C 
ATOM     23  C   UNL     1     -27.883  12.191   8.475  0.00  0.00    +0.000 C 
ENDBRANCH  11  22
BRANCH   8  24
ATOM     24  O   UNL     1     -27.936   7.417  11.736  0.00  0.00    +0.000 OA
BRANCH  24  26
ATOM     25  O   UNL     1     -27.953   5.150  11.362  0.00  0.00    +0.000 OA
ATOM     26  C   UNL     1     -28.403   6.270  11.172  0.00  0.00    +0.000 C 
ATOM     27  C   UNL     1     -29.543   6.578  10.250  0.00  0.00    +0.000 C 
ENDBRANCH  24  26
ENDBRANCH   8  24
BRANCH  10  28
ATOM     28  O   UNL     1     -26.226   9.452   9.201  0.00  0.00    +0.000 OA
BRANCH  28  30
ATOM     29  O   UNL     1     -25.758   9.637   6.956  0.00  0.00    +0.000 OA
ATOM     30  C   UNL     1     -26.092   8.981   7.930  0.00  0.00    +0.000 C 
ATOM     31  C   UNL     1     -26.434   7.524   7.884  0.00  0.00    +0.000 C 
ENDBRANCH  28  30
ENDBRANCH  10  28
BRANCH  20  32
ATOM     32  O   UNL     1     -20.727   5.071  12.238  0.00  0.00    +0.000 OA
BRANCH  32  34
ATOM     33  O   UNL     1     -18.812   3.728  12.015  0.00  0.00    +0.000 OA
ATOM     34  C   UNL     1     -19.641   4.699  11.391  0.00  0.00    +0.000 C 
ATOM     35  C   UNL     1     -18.824   5.955  11.137  0.00  0.00    +0.000 C 
ATOM     36  C   UNL     1     -17.618   5.664  10.246  0.00  0.00    +0.000 C 
ATOM     37  C   UNL     1     -17.759   3.297  11.153  0.00  0.00    +0.000 C 
ATOM     38  C   UNL     1     -16.809   4.454  10.774  0.00  0.00    +0.000 C 
ATOM     39  C   UNL     1     -17.012   2.179  11.876  0.00  0.00    +0.000 C 
BRANCH  36  40
ATOM     40  O   UNL     1     -16.762   6.823  10.229  0.00  0.00    +0.000 OA
ATOM     41  C   UNL     1     -15.967   6.956  11.401  0.00  0.00    +0.000 C 
ENDBRANCH  36  40
BRANCH  38  42
ATOM     42  O   UNL     1     -15.906   3.922   9.789  0.00  0.00    +0.000 OA
BRANCH  42  44
ATOM     43  O   UNL     1     -16.502   2.697   7.909  0.00  0.00    +0.000 OA
ATOM     44  C   UNL     1     -16.363   4.014   8.439  0.00  0.00    +0.000 C 
ATOM     45  C   UNL     1     -15.294   4.800   7.631  0.00  0.00    +0.000 C 
ATOM     46  C   UNL     1     -15.043   4.136   6.256  0.00  0.00    +0.000 C 
ATOM     47  C   UNL     1     -17.107   2.713   6.606  0.00  0.00    +0.000 C 
ATOM     48  C   UNL     1     -16.380   3.683   5.653  0.00  0.00    +0.000 C 
ATOM     49  C   UNL     1     -17.036   1.282   6.087  0.00  0.00    +0.000 C 
BRANCH  45  50
ATOM     50  O   UNL     1     -15.718   6.171   7.480  0.00  0.00    +0.000 OA
ATOM     51  H   UNL     1     -15.106   6.704   8.026  0.00  0.00    +0.000 HD
ENDBRANCH  45  50
BRANCH  46  52
ATOM     52  O   UNL     1     -14.429   5.019   5.297  0.00  0.00    +0.000 OA
ATOM     53  C   UNL     1     -13.881   4.332   4.177  0.00  0.00    +0.000 C 
ENDBRANCH  46  52
BRANCH  48  54
ATOM     54  O   UNL     1     -17.187   4.861   5.446  0.00  0.00    +0.000 OA
ATOM     55  H   UNL     1     -18.022   4.670   5.924  0.00  0.00    +0.000 HD
ENDBRANCH  48  54
ENDBRANCH  42  44
ENDBRANCH  38  42
ENDBRANCH  32  34
ENDBRANCH  20  32
TORSDOF 13
ENDMDL
MODEL 7
REMARK VINA RESULT:      -6.1      7.838     11.693
REMARK  Name = ./IMPHY000008_3D.pdb
REMARK  22 active torsions:
REMARK  status: ('A' for Active; 'I' for Inactive)
REMARK    1  A    between atoms: O_2  and  C_21
REMARK    2  A    between atoms: O_2  and  C_36
REMARK    3  A    between atoms: O_3  and  C_23
REMARK    4  A    between atoms: O_3  and  C_37
REMARK    5  A    between atoms: O_4  and  C_34
REMARK    6  A    between atoms: O_4  and  C_38
REMARK    7  A    between atoms: O_9  and  C_42
REMARK    8  A    between atoms: O_9  and  C_47
REMARK    9  A    between atoms: O_10  and  C_44
REMARK   10  A    between atoms: O_10  and  C_46
REMARK   11  A    between atoms: O_12  and  C_48
REMARK   12  A    between atoms: O_13  and  C_49
REMARK   13  A    between atoms: O_13  and  C_53
REMARK   14  A    between atoms: O_14  and  C_51
REMARK   15  A    between atoms: C_17  and  C_28
REMARK   16  A    between atoms: C_19  and  C_30
REMARK   17  A    between atoms: C_24  and  C_33
REMARK   18  A    between atoms: C_33  and  C_35
REMARK   19  A    between atoms: C_36  and  C_39
REMARK   20  A    between atoms: C_37  and  C_40
REMARK   21  A    between atoms: C_43  and  C_45
REMARK   22  A    between atoms: C_50  and  C_52
REMARK                            x       y       z     vdW  Elec       q    Type
REMARK                         _______ _______ _______ _____ _____    ______ ____
ROOT
ATOM      1  O   UNL     1     -26.360   9.335  13.330  0.00  0.00    +0.000 OA
ATOM      2  C   UNL     1     -26.800  10.275  12.371  0.00  0.00    +0.000 C 
ATOM      3  C   UNL     1     -25.409   9.646  12.293  0.00  0.00    +0.000 C 
ATOM      4  C   UNL     1     -28.026   9.822  11.589  0.00  0.00    +0.000 C 
ATOM      5  C   UNL     1     -25.124   8.666  11.168  0.00  0.00    +0.000 C 
ATOM      6  C   UNL     1     -24.236   7.461  11.674  0.00  0.00    +0.000 C 
ATOM      7  C   UNL     1     -26.891  11.732  12.634  0.00  0.00    +0.000 C 
ATOM      8  C   UNL     1     -27.732   8.496  10.821  0.00  0.00    +0.000 C 
ATOM      9  C   UNL     1     -24.166  10.218  12.934  0.00  0.00    +0.000 C 
ATOM     10  C   UNL     1     -26.320   8.398  10.212  0.00  0.00    +0.000 C 
ATOM     11  C   UNL     1     -28.406  11.150  10.808  0.00  0.00    +0.000 C 
ATOM     12  C   UNL     1     -22.952   8.083  12.334  0.00  0.00    +0.000 C 
ATOM     13  C   UNL     1     -27.377  12.211  11.269  0.00  0.00    +0.000 C 
ATOM     14  C   UNL     1     -23.277   9.084  13.454  0.00  0.00    +0.000 C 
ATOM     15  C   UNL     1     -29.200   9.566  12.586  0.00  0.00    +0.000 C 
ATOM     16  C   UNL     1     -23.736   6.586  10.489  0.00  0.00    +0.000 C 
ATOM     17  C   UNL     1     -25.014   6.554  12.648  0.00  0.00    +0.000 C 
ATOM     18  C   UNL     1     -21.942   7.025  12.801  0.00  0.00    +0.000 C 
ATOM     19  C   UNL     1     -22.706   5.531  10.902  0.00  0.00    +0.000 C 
ATOM     20  C   UNL     1     -21.502   6.122  11.641  0.00  0.00    +0.000 C 
ENDROOT
BRANCH  11  22
ATOM     21  O   UNL     1     -29.447  10.343   8.783  0.00  0.00    +0.000 OA
ATOM     22  C   UNL     1     -28.627  11.102   9.298  0.00  0.00    +0.000 C 
ATOM     23  C   UNL     1     -27.918  12.119   8.438  0.00  0.00    +0.000 C 
ENDBRANCH  11  22
BRANCH   8  24
ATOM     24  O   UNL     1     -27.934   7.368  11.718  0.00  0.00    +0.000 OA
BRANCH  24  26
ATOM     25  O   UNL     1     -27.879   5.122  11.238  0.00  0.00    +0.000 OA
ATOM     26  C   UNL     1     -28.411   6.220  11.166  0.00  0.00    +0.000 C 
ATOM     27  C   UNL     1     -29.681   6.496  10.421  0.00  0.00    +0.000 C 
ENDBRANCH  24  26
ENDBRANCH   8  24
BRANCH  10  28
ATOM     28  O   UNL     1     -26.266   9.392   9.146  0.00  0.00    +0.000 OA
BRANCH  28  30
ATOM     29  O   UNL     1     -25.766   9.564   6.907  0.00  0.00    +0.000 OA
ATOM     30  C   UNL     1     -26.131   8.918   7.877  0.00  0.00    +0.000 C 
ATOM     31  C   UNL     1     -26.516   7.471   7.826  0.00  0.00    +0.000 C 
ENDBRANCH  28  30
ENDBRANCH  10  28
BRANCH  20  32
ATOM     32  O   UNL     1     -20.720   5.016  12.102  0.00  0.00    +0.000 OA
BRANCH  32  34
ATOM     33  O   UNL     1     -18.767   6.201  11.553  0.00  0.00    +0.000 OA
ATOM     34  C   UNL     1     -19.392   5.347  12.502  0.00  0.00    +0.000 C 
ATOM     35  C   UNL     1     -18.613   4.045  12.583  0.00  0.00    +0.000 C 
ATOM     36  C   UNL     1     -17.162   4.289  12.993  0.00  0.00    +0.000 C 
ATOM     37  C   UNL     1     -17.461   6.595  11.974  0.00  0.00    +0.000 C 
ATOM     38  C   UNL     1     -16.509   5.388  12.119  0.00  0.00    +0.000 C 
ATOM     39  C   UNL     1     -16.938   7.595  10.946  0.00  0.00    +0.000 C 
BRANCH  36  40
ATOM     40  O   UNL     1     -16.421   3.064  12.829  0.00  0.00    +0.000 OA
ATOM     41  C   UNL     1     -16.065   2.449  14.061  0.00  0.00    +0.000 C 
ENDBRANCH  36  40
BRANCH  38  42
ATOM     42  O   UNL     1     -15.296   5.903  12.695  0.00  0.00    +0.000 OA
BRANCH  42  44
ATOM     43  O   UNL     1     -14.457   4.966  10.744  0.00  0.00    +0.000 OA
ATOM     44  C   UNL     1     -14.101   5.564  11.990  0.00  0.00    +0.000 C 
ATOM     45  C   UNL     1     -13.312   4.547  12.859  0.00  0.00    +0.000 C 
ATOM     46  C   UNL     1     -12.746   3.400  11.988  0.00  0.00    +0.000 C 
ATOM     47  C   UNL     1     -13.302   4.743   9.917  0.00  0.00    +0.000 C 
ATOM     48  C   UNL     1     -12.201   3.974  10.673  0.00  0.00    +0.000 C 
ATOM     49  C   UNL     1     -13.792   3.952   8.710  0.00  0.00    +0.000 C 
BRANCH  45  50
ATOM     50  O   UNL     1     -12.259   5.235  13.567  0.00  0.00    +0.000 OA
ATOM     51  H   UNL     1     -11.833   4.562  14.135  0.00  0.00    +0.000 HD
ENDBRANCH  45  50
BRANCH  46  52
ATOM     52  O   UNL     1     -11.661   2.688  12.615  0.00  0.00    +0.000 OA
ATOM     53  C   UNL     1     -11.902   1.289  12.725  0.00  0.00    +0.000 C 
ENDBRANCH  46  52
BRANCH  48  54
ATOM     54  O   UNL     1     -11.118   4.869  11.002  0.00  0.00    +0.000 OA
ATOM     55  H   UNL     1     -11.534   5.556  11.565  0.00  0.00    +0.000 HD
ENDBRANCH  48  54
ENDBRANCH  42  44
ENDBRANCH  38  42
ENDBRANCH  32  34
ENDBRANCH  20  32
TORSDOF 13
ENDMDL
MODEL 8
REMARK VINA RESULT:      -6.0      2.529     11.348
REMARK  Name = ./IMPHY000008_3D.pdb
REMARK  22 active torsions:
REMARK  status: ('A' for Active; 'I' for Inactive)
REMARK    1  A    between atoms: O_2  and  C_21
REMARK    2  A    between atoms: O_2  and  C_36
REMARK    3  A    between atoms: O_3  and  C_23
REMARK    4  A    between atoms: O_3  and  C_37
REMARK    5  A    between atoms: O_4  and  C_34
REMARK    6  A    between atoms: O_4  and  C_38
REMARK    7  A    between atoms: O_9  and  C_42
REMARK    8  A    between atoms: O_9  and  C_47
REMARK    9  A    between atoms: O_10  and  C_44
REMARK   10  A    between atoms: O_10  and  C_46
REMARK   11  A    between atoms: O_12  and  C_48
REMARK   12  A    between atoms: O_13  and  C_49
REMARK   13  A    between atoms: O_13  and  C_53
REMARK   14  A    between atoms: O_14  and  C_51
REMARK   15  A    between atoms: C_17  and  C_28
REMARK   16  A    between atoms: C_19  and  C_30
REMARK   17  A    between atoms: C_24  and  C_33
REMARK   18  A    between atoms: C_33  and  C_35
REMARK   19  A    between atoms: C_36  and  C_39
REMARK   20  A    between atoms: C_37  and  C_40
REMARK   21  A    between atoms: C_43  and  C_45
REMARK   22  A    between atoms: C_50  and  C_52
REMARK                            x       y       z     vdW  Elec       q    Type
REMARK                         _______ _______ _______ _____ _____    ______ ____
ROOT
ATOM      1  O   UNL     1     -14.847   3.105  11.617  0.00  0.00    +0.000 OA
ATOM      2  C   UNL     1     -14.863   4.120  12.601  0.00  0.00    +0.000 C 
ATOM      3  C   UNL     1     -14.397   4.400  11.172  0.00  0.00    +0.000 C 
ATOM      4  C   UNL     1     -16.251   4.410  13.156  0.00  0.00    +0.000 C 
ATOM      5  C   UNL     1     -15.270   5.274  10.288  0.00  0.00    +0.000 C 
ATOM      6  C   UNL     1     -15.301   4.732   8.804  0.00  0.00    +0.000 C 
ATOM      7  C   UNL     1     -13.862   4.219  13.691  0.00  0.00    +0.000 C 
ATOM      8  C   UNL     1     -17.217   4.867  12.018  0.00  0.00    +0.000 C 
ATOM      9  C   UNL     1     -12.970   4.275  10.691  0.00  0.00    +0.000 C 
ATOM     10  C   UNL     1     -16.579   5.782  10.955  0.00  0.00    +0.000 C 
ATOM     11  C   UNL     1     -15.906   5.374  14.369  0.00  0.00    +0.000 C 
ATOM     12  C   UNL     1     -13.807   4.613   8.328  0.00  0.00    +0.000 C 
ATOM     13  C   UNL     1     -14.363   5.484  14.385  0.00  0.00    +0.000 C 
ATOM     14  C   UNL     1     -12.949   3.738   9.255  0.00  0.00    +0.000 C 
ATOM     15  C   UNL     1     -16.826   3.109  13.799  0.00  0.00    +0.000 C 
ATOM     16  C   UNL     1     -15.984   5.745   7.842  0.00  0.00    +0.000 C 
ATOM     17  C   UNL     1     -16.055   3.391   8.707  0.00  0.00    +0.000 C 
ATOM     18  C   UNL     1     -13.676   4.176   6.862  0.00  0.00    +0.000 C 
ATOM     19  C   UNL     1     -15.857   5.365   6.365  0.00  0.00    +0.000 C 
ATOM     20  C   UNL     1     -14.408   5.143   5.923  0.00  0.00    +0.000 C 
ENDROOT
BRANCH  11  22
ATOM     21  O   UNL     1     -16.054   7.785  14.360  0.00  0.00    +0.000 OA
ATOM     22  C   UNL     1     -16.634   6.709  14.505  0.00  0.00    +0.000 C 
ATOM     23  C   UNL     1     -18.133   6.693  14.678  0.00  0.00    +0.000 C 
ENDBRANCH  11  22
BRANCH   8  24
ATOM     24  O   UNL     1     -17.768   3.694  11.358  0.00  0.00    +0.000 OA
BRANCH  24  26
ATOM     25  O   UNL     1     -19.351   3.809   9.697  0.00  0.00    +0.000 OA
ATOM     26  C   UNL     1     -19.037   3.796  10.877  0.00  0.00    +0.000 C 
ATOM     27  C   UNL     1     -20.008   3.923  12.012  0.00  0.00    +0.000 C 
ENDBRANCH  24  26
ENDBRANCH   8  24
BRANCH  10  28
ATOM     28  O   UNL     1     -16.275   7.039  11.627  0.00  0.00    +0.000 OA
BRANCH  28  30
ATOM     29  O   UNL     1     -17.057   8.701  10.241  0.00  0.00    +0.000 OA
ATOM     30  C   UNL     1     -16.149   8.139  10.834  0.00  0.00    +0.000 C 
ATOM     31  C   UNL     1     -14.714   8.564  10.770  0.00  0.00    +0.000 C 
ENDBRANCH  28  30
ENDBRANCH  10  28
BRANCH  20  32
ATOM     32  O   UNL     1     -14.460   4.640   4.584  0.00  0.00    +0.000 OA
BRANCH  32  34
ATOM     33  O   UNL     1     -15.347   2.464   4.591  0.00  0.00    +0.000 OA
ATOM     34  C   UNL     1     -15.598   3.831   4.293  0.00  0.00    +0.000 C 
ATOM     35  C   UNL     1     -15.874   3.969   2.805  0.00  0.00    +0.000 C 
ATOM     36  C   UNL     1     -17.073   3.124   2.379  0.00  0.00    +0.000 C 
ATOM     37  C   UNL     1     -16.499   1.652   4.367  0.00  0.00    +0.000 C 
ATOM     38  C   UNL     1     -16.942   1.667   2.887  0.00  0.00    +0.000 C 
ATOM     39  C   UNL     1     -16.153   0.239   4.829  0.00  0.00    +0.000 C 
BRANCH  36  40
ATOM     40  O   UNL     1     -17.144   3.110   0.941  0.00  0.00    +0.000 OA
ATOM     41  C   UNL     1     -15.912   3.436   0.310  0.00  0.00    +0.000 C 
ENDBRANCH  36  40
BRANCH  38  42
ATOM     42  O   UNL     1     -18.187   0.951   2.836  0.00  0.00    +0.000 OA
BRANCH  42  44
ATOM     43  O   UNL     1     -20.015   1.395   4.198  0.00  0.00    +0.000 OA
ATOM     44  C   UNL     1     -19.355   1.760   2.986  0.00  0.00    +0.000 C 
ATOM     45  C   UNL     1     -20.283   1.480   1.773  0.00  0.00    +0.000 C 
ATOM     46  C   UNL     1     -21.757   1.345   2.225  0.00  0.00    +0.000 C 
ATOM     47  C   UNL     1     -21.112   2.277   4.488  0.00  0.00    +0.000 C 
ATOM     48  C   UNL     1     -22.068   2.410   3.286  0.00  0.00    +0.000 C 
ATOM     49  C   UNL     1     -21.829   1.681   5.694  0.00  0.00    +0.000 C 
BRANCH  45  50
ATOM     50  O   UNL     1     -20.130   2.532   0.797  0.00  0.00    +0.000 OA
ATOM     51  H   UNL     1     -19.521   3.185   1.198  0.00  0.00    +0.000 HD
ENDBRANCH  45  50
BRANCH  46  52
ATOM     52  O   UNL     1     -22.704   1.533   1.155  0.00  0.00    +0.000 OA
ATOM     53  C   UNL     1     -23.734   0.551   1.143  0.00  0.00    +0.000 C 
ENDBRANCH  46  52
BRANCH  48  54
ATOM     54  O   UNL     1     -21.900   3.704   2.669  0.00  0.00    +0.000 OA
ATOM     55  H   UNL     1     -21.351   3.525   1.877  0.00  0.00    +0.000 HD
ENDBRANCH  48  54
ENDBRANCH  42  44
ENDBRANCH  38  42
ENDBRANCH  32  34
ENDBRANCH  20  32
TORSDOF 13
ENDMDL
MODEL 9
REMARK VINA RESULT:      -5.9      1.334      3.280
REMARK  Name = ./IMPHY000008_3D.pdb
REMARK  22 active torsions:
REMARK  status: ('A' for Active; 'I' for Inactive)
REMARK    1  A    between atoms: O_2  and  C_21
REMARK    2  A    between atoms: O_2  and  C_36
REMARK    3  A    between atoms: O_3  and  C_23
REMARK    4  A    between atoms: O_3  and  C_37
REMARK    5  A    between atoms: O_4  and  C_34
REMARK    6  A    between atoms: O_4  and  C_38
REMARK    7  A    between atoms: O_9  and  C_42
REMARK    8  A    between atoms: O_9  and  C_47
REMARK    9  A    between atoms: O_10  and  C_44
REMARK   10  A    between atoms: O_10  and  C_46
REMARK   11  A    between atoms: O_12  and  C_48
REMARK   12  A    between atoms: O_13  and  C_49
REMARK   13  A    between atoms: O_13  and  C_53
REMARK   14  A    between atoms: O_14  and  C_51
REMARK   15  A    between atoms: C_17  and  C_28
REMARK   16  A    between atoms: C_19  and  C_30
REMARK   17  A    between atoms: C_24  and  C_33
REMARK   18  A    between atoms: C_33  and  C_35
REMARK   19  A    between atoms: C_36  and  C_39
REMARK   20  A    between atoms: C_37  and  C_40
REMARK   21  A    between atoms: C_43  and  C_45
REMARK   22  A    between atoms: C_50  and  C_52
REMARK                            x       y       z     vdW  Elec       q    Type
REMARK                         _______ _______ _______ _____ _____    ______ ____
ROOT
ATOM      1  O   UNL     1     -16.199   3.931   1.359  0.00  0.00    +0.000 OA
ATOM      2  C   UNL     1     -16.544   2.618   0.963  0.00  0.00    +0.000 C 
ATOM      3  C   UNL     1     -15.717   2.882   2.222  0.00  0.00    +0.000 C 
ATOM      4  C   UNL     1     -18.046   2.368   0.922  0.00  0.00    +0.000 C 
ATOM      5  C   UNL     1     -16.360   2.618   3.573  0.00  0.00    +0.000 C 
ATOM      6  C   UNL     1     -15.948   3.724   4.624  0.00  0.00    +0.000 C 
ATOM      7  C   UNL     1     -15.891   1.905  -0.161  0.00  0.00    +0.000 C 
ATOM      8  C   UNL     1     -18.683   2.599   2.328  0.00  0.00    +0.000 C 
ATOM      9  C   UNL     1     -14.209   2.947   2.264  0.00  0.00    +0.000 C 
ATOM     10  C   UNL     1     -17.829   2.114   3.515  0.00  0.00    +0.000 C 
ATOM     11  C   UNL     1     -18.105   0.945   0.223  0.00  0.00    +0.000 C 
ATOM     12  C   UNL     1     -14.377   3.771   4.650  0.00  0.00    +0.000 C 
ATOM     13  C   UNL     1     -16.635   0.573  -0.087  0.00  0.00    +0.000 C 
ATOM     14  C   UNL     1     -13.761   4.018   3.264  0.00  0.00    +0.000 C 
ATOM     15  C   UNL     1     -18.701   3.363  -0.088  0.00  0.00    +0.000 C 
ATOM     16  C   UNL     1     -16.395   3.336   6.063  0.00  0.00    +0.000 C 
ATOM     17  C   UNL     1     -16.568   5.093   4.279  0.00  0.00    +0.000 C 
ATOM     18  C   UNL     1     -13.820   4.747   5.696  0.00  0.00    +0.000 C 
ATOM     19  C   UNL     1     -15.843   4.267   7.145  0.00  0.00    +0.000 C 
ATOM     20  C   UNL     1     -14.318   4.399   7.105  0.00  0.00    +0.000 C 
ENDROOT
BRANCH  11  22
ATOM     21  O   UNL     1     -20.109  -0.046   1.141  0.00  0.00    +0.000 OA
ATOM     22  C   UNL     1     -18.917  -0.179   0.864  0.00  0.00    +0.000 C 
ATOM     23  C   UNL     1     -18.266  -1.531   1.024  0.00  0.00    +0.000 C 
ENDBRANCH  11  22
BRANCH   8  24
ATOM     24  O   UNL     1     -18.962   4.017   2.500  0.00  0.00    +0.000 OA
BRANCH  24  26
ATOM     25  O   UNL     1     -21.136   3.670   3.158  0.00  0.00    +0.000 OA
ATOM     26  C   UNL     1     -20.266   4.372   2.665  0.00  0.00    +0.000 C 
ATOM     27  C   UNL     1     -20.495   5.751   2.127  0.00  0.00    +0.000 C 
ENDBRANCH  24  26
ENDBRANCH   8  24
BRANCH  10  28
ATOM     28  O   UNL     1     -17.795   0.659   3.425  0.00  0.00    +0.000 OA
BRANCH  28  30
ATOM     29  O   UNL     1     -17.607   0.063   5.639  0.00  0.00    +0.000 OA
ATOM     30  C   UNL     1     -17.238  -0.003   4.477  0.00  0.00    +0.000 C 
ATOM     31  C   UNL     1     -16.077  -0.826   4.009  0.00  0.00    +0.000 C 
ENDBRANCH  28  30
ENDBRANCH  10  28
BRANCH  20  32
ATOM     32  O   UNL     1     -13.969   5.413   8.053  0.00  0.00    +0.000 OA
BRANCH  32  34
ATOM     33  O   UNL     1     -15.262   6.723   9.513  0.00  0.00    +0.000 OA
ATOM     34  C   UNL     1     -14.761   5.421   9.238  0.00  0.00    +0.000 C 
ATOM     35  C   UNL     1     -13.858   4.989  10.382  0.00  0.00    +0.000 C 
ATOM     36  C   UNL     1     -14.608   4.978  11.712  0.00  0.00    +0.000 C 
ATOM     37  C   UNL     1     -16.112   6.733  10.660  0.00  0.00    +0.000 C 
ATOM     38  C   UNL     1     -15.362   6.312  11.943  0.00  0.00    +0.000 C 
ATOM     39  C   UNL     1     -16.681   8.144  10.788  0.00  0.00    +0.000 C 
BRANCH  36  40
ATOM     40  O   UNL     1     -13.659   4.790  12.779  0.00  0.00    +0.000 OA
ATOM     41  C   UNL     1     -13.797   3.542  13.446  0.00  0.00    +0.000 C 
ENDBRANCH  36  40
BRANCH  38  42
ATOM     42  O   UNL     1     -16.359   6.210  12.974  0.00  0.00    +0.000 OA
BRANCH  42  44
ATOM     43  O   UNL     1     -15.878   5.777  15.203  0.00  0.00    +0.000 OA
ATOM     44  C   UNL     1     -15.998   6.805  14.222  0.00  0.00    +0.000 C 
ATOM     45  C   UNL     1     -17.132   7.788  14.622  0.00  0.00    +0.000 C 
ATOM     46  C   UNL     1     -17.469   7.659  16.126  0.00  0.00    +0.000 C 
ATOM     47  C   UNL     1     -15.365   6.289  16.445  0.00  0.00    +0.000 C 
ATOM     48  C   UNL     1     -16.171   7.509  16.932  0.00  0.00    +0.000 C 
ATOM     49  C   UNL     1     -15.451   5.142  17.444  0.00  0.00    +0.000 C 
BRANCH  45  50
ATOM     50  O   UNL     1     -16.740   9.136  14.287  0.00  0.00    +0.000 OA
ATOM     51  H   UNL     1     -16.271   9.483  15.072  0.00  0.00    +0.000 HD
ENDBRANCH  45  50
BRANCH  46  52
ATOM     52  O   UNL     1     -18.161   8.806  16.659  0.00  0.00    +0.000 OA
ATOM     53  C   UNL     1     -19.456   8.493  17.158  0.00  0.00    +0.000 C 
ENDBRANCH  46  52
BRANCH  48  54
ATOM     54  O   UNL     1     -15.397   8.712  16.743  0.00  0.00    +0.000 OA
ATOM     55  H   UNL     1     -15.782   9.351  17.380  0.00  0.00    +0.000 HD
ENDBRANCH  48  54
ENDBRANCH  42  44
ENDBRANCH  38  42
ENDBRANCH  32  34
ENDBRANCH  20  32
TORSDOF 13
ENDMDL
