MODEL 1
REMARK VINA RESULT:      -5.6      0.000      0.000
REMARK  Name = ./IMPHY000004_3D.pdb
REMARK  2 active torsions:
REMARK  status: ('A' for Active; 'I' for Inactive)
REMARK    1  A    between atoms: C_3  and  C_9
REMARK    2  A    between atoms: C_4  and  C_10
REMARK                            x       y       z     vdW  Elec       q    Type
REMARK                         _______ _______ _______ _____ _____    ______ ____
ROOT
ATOM      1  C   UNL     1     -27.360  12.175  10.282  0.00  0.00    +0.000 A 
ATOM      2  C   UNL     1     -27.409  12.410   8.886  0.00  0.00    +0.000 A 
ATOM      3  C   UNL     1     -27.471  13.261  11.164  0.00  0.00    +0.000 A 
ATOM      4  C   UNL     1     -27.676  14.790   9.308  0.00  0.00    +0.000 A 
ATOM      5  C   UNL     1     -27.567  13.723   8.416  0.00  0.00    +0.000 A 
ATOM      6  C   UNL     1     -27.628  14.559  10.680  0.00  0.00    +0.000 A 
ATOM      7  C   UNL     1     -27.201  10.861  10.752  0.00  0.00    +0.000 A 
ATOM      8  C   UNL     1     -27.298  11.323   8.003  0.00  0.00    +0.000 A 
ATOM      9  C   UNL     1     -27.427  13.083  12.651  0.00  0.00    +0.000 C 
ATOM     10  C   UNL     1     -27.844  16.180   8.791  0.00  0.00    +0.000 C 
ATOM     11  C   UNL     1     -27.092   9.794   9.860  0.00  0.00    +0.000 A 
ATOM     12  C   UNL     1     -27.140  10.025   8.488  0.00  0.00    +0.000 A 
ENDROOT
TORSDOF 0
ENDMDL
MODEL 2
REMARK VINA RESULT:      -5.3      0.842      2.791
REMARK  Name = ./IMPHY000004_3D.pdb
REMARK  2 active torsions:
REMARK  status: ('A' for Active; 'I' for Inactive)
REMARK    1  A    between atoms: C_3  and  C_9
REMARK    2  A    between atoms: C_4  and  C_10
REMARK                            x       y       z     vdW  Elec       q    Type
REMARK                         _______ _______ _______ _____ _____    ______ ____
ROOT
ATOM      1  C   UNL     1     -27.371  12.308   9.278  0.00  0.00    +0.000 A 
ATOM      2  C   UNL     1     -27.261  11.530  10.455  0.00  0.00    +0.000 A 
ATOM      3  C   UNL     1     -27.516  13.700   9.385  0.00  0.00    +0.000 A 
ATOM      4  C   UNL     1     -27.444  13.553  11.794  0.00  0.00    +0.000 A 
ATOM      5  C   UNL     1     -27.300  12.168  11.706  0.00  0.00    +0.000 A 
ATOM      6  C   UNL     1     -27.552  14.318  10.635  0.00  0.00    +0.000 A 
ATOM      7  C   UNL     1     -27.333  11.669   8.026  0.00  0.00    +0.000 A 
ATOM      8  C   UNL     1     -27.117  10.137  10.348  0.00  0.00    +0.000 A 
ATOM      9  C   UNL     1     -27.637  14.581   8.180  0.00  0.00    +0.000 C 
ATOM     10  C   UNL     1     -27.483  14.215  13.130  0.00  0.00    +0.000 C 
ATOM     11  C   UNL     1     -27.189  10.285   7.939  0.00  0.00    +0.000 A 
ATOM     12  C   UNL     1     -27.081   9.520   9.097  0.00  0.00    +0.000 A 
ENDROOT
TORSDOF 0
ENDMDL
MODEL 3
REMARK VINA RESULT:      -5.2      0.687      3.853
REMARK  Name = ./IMPHY000004_3D.pdb
REMARK  2 active torsions:
REMARK  status: ('A' for Active; 'I' for Inactive)
REMARK    1  A    between atoms: C_3  and  C_9
REMARK    2  A    between atoms: C_4  and  C_10
REMARK                            x       y       z     vdW  Elec       q    Type
REMARK                         _______ _______ _______ _____ _____    ______ ____
ROOT
ATOM      1  C   UNL     1     -27.400  12.442  10.115  0.00  0.00    +0.000 A 
ATOM      2  C   UNL     1     -27.392  12.599   8.708  0.00  0.00    +0.000 A 
ATOM      3  C   UNL     1     -27.256  11.158  10.664  0.00  0.00    +0.000 A 
ATOM      4  C   UNL     1     -27.096  10.198   8.455  0.00  0.00    +0.000 A 
ATOM      5  C   UNL     1     -27.238  11.466   7.892  0.00  0.00    +0.000 A 
ATOM      6  C   UNL     1     -27.105  10.044   9.838  0.00  0.00    +0.000 A 
ATOM      7  C   UNL     1     -27.553  13.575  10.932  0.00  0.00    +0.000 A 
ATOM      8  C   UNL     1     -27.536  13.883   8.159  0.00  0.00    +0.000 A 
ATOM      9  C   UNL     1     -27.256  10.922  12.143  0.00  0.00    +0.000 C 
ATOM     10  C   UNL     1     -26.934   9.005   7.573  0.00  0.00    +0.000 C 
ATOM     11  C   UNL     1     -27.696  14.844  10.369  0.00  0.00    +0.000 A 
ATOM     12  C   UNL     1     -27.687  14.998   8.986  0.00  0.00    +0.000 A 
ENDROOT
TORSDOF 0
ENDMDL
MODEL 4
REMARK VINA RESULT:      -5.2      0.646      2.917
REMARK  Name = ./IMPHY000004_3D.pdb
REMARK  2 active torsions:
REMARK  status: ('A' for Active; 'I' for Inactive)
REMARK    1  A    between atoms: C_3  and  C_9
REMARK    2  A    between atoms: C_4  and  C_10
REMARK                            x       y       z     vdW  Elec       q    Type
REMARK                         _______ _______ _______ _____ _____    ______ ____
ROOT
ATOM      1  C   UNL     1     -27.341  12.025  10.295  0.00  0.00    +0.000 A 
ATOM      2  C   UNL     1     -27.413  13.106  11.207  0.00  0.00    +0.000 A 
ATOM      3  C   UNL     1     -27.422  12.283   8.918  0.00  0.00    +0.000 A 
ATOM      4  C   UNL     1     -27.643  14.650   9.342  0.00  0.00    +0.000 A 
ATOM      5  C   UNL     1     -27.564  14.412  10.714  0.00  0.00    +0.000 A 
ATOM      6  C   UNL     1     -27.572  13.587   8.445  0.00  0.00    +0.000 A 
ATOM      7  C   UNL     1     -27.190  10.719  10.788  0.00  0.00    +0.000 A 
ATOM      8  C   UNL     1     -27.332  12.848  12.585  0.00  0.00    +0.000 A 
ATOM      9  C   UNL     1     -27.353  11.187   7.899  0.00  0.00    +0.000 C 
ATOM     10  C   UNL     1     -27.804  16.044   8.835  0.00  0.00    +0.000 C 
ATOM     11  C   UNL     1     -27.111  10.481  12.161  0.00  0.00    +0.000 A 
ATOM     12  C   UNL     1     -27.182  11.543  13.057  0.00  0.00    +0.000 A 
ENDROOT
TORSDOF 0
ENDMDL
MODEL 5
REMARK VINA RESULT:      -5.2      1.063      3.765
REMARK  Name = ./IMPHY000004_3D.pdb
REMARK  2 active torsions:
REMARK  status: ('A' for Active; 'I' for Inactive)
REMARK    1  A    between atoms: C_3  and  C_9
REMARK    2  A    between atoms: C_4  and  C_10
REMARK                            x       y       z     vdW  Elec       q    Type
REMARK                         _______ _______ _______ _____ _____    ______ ____
ROOT
ATOM      1  C   UNL     1     -27.480  13.662  10.631  0.00  0.00    +0.000 A 
ATOM      2  C   UNL     1     -27.438  12.750   9.549  0.00  0.00    +0.000 A 
ATOM      3  C   UNL     1     -27.372  13.177  11.943  0.00  0.00    +0.000 A 
ATOM      4  C   UNL     1     -27.183  10.914  11.123  0.00  0.00    +0.000 A 
ATOM      5  C   UNL     1     -27.289  11.379   9.812  0.00  0.00    +0.000 A 
ATOM      6  C   UNL     1     -27.224  11.811  12.187  0.00  0.00    +0.000 A 
ATOM      7  C   UNL     1     -27.629  15.035  10.367  0.00  0.00    +0.000 A 
ATOM      8  C   UNL     1     -27.546  13.237   8.236  0.00  0.00    +0.000 A 
ATOM      9  C   UNL     1     -27.408  14.086  13.132  0.00  0.00    +0.000 C 
ATOM     10  C   UNL     1     -27.025   9.453  11.385  0.00  0.00    +0.000 C 
ATOM     11  C   UNL     1     -27.735  15.500   9.056  0.00  0.00    +0.000 A 
ATOM     12  C   UNL     1     -27.693  14.603   7.993  0.00  0.00    +0.000 A 
ENDROOT
TORSDOF 0
ENDMDL
MODEL 6
REMARK VINA RESULT:      -5.2      0.942      4.469
REMARK  Name = ./IMPHY000004_3D.pdb
REMARK  2 active torsions:
REMARK  status: ('A' for Active; 'I' for Inactive)
REMARK    1  A    between atoms: C_3  and  C_9
REMARK    2  A    between atoms: C_4  and  C_10
REMARK                            x       y       z     vdW  Elec       q    Type
REMARK                         _______ _______ _______ _____ _____    ______ ____
ROOT
ATOM      1  C   UNL     1     -27.386  12.479   9.194  0.00  0.00    +0.000 A 
ATOM      2  C   UNL     1     -27.408  13.001  10.510  0.00  0.00    +0.000 A 
ATOM      3  C   UNL     1     -27.244  11.095   9.007  0.00  0.00    +0.000 A 
ATOM      4  C   UNL     1     -27.147  10.750  11.394  0.00  0.00    +0.000 A 
ATOM      5  C   UNL     1     -27.287  12.122  11.599  0.00  0.00    +0.000 A 
ATOM      6  C   UNL     1     -27.125  10.237  10.100  0.00  0.00    +0.000 A 
ATOM      7  C   UNL     1     -27.507  13.358   8.105  0.00  0.00    +0.000 A 
ATOM      8  C   UNL     1     -27.549  14.385  10.698  0.00  0.00    +0.000 A 
ATOM      9  C   UNL     1     -27.213  10.478   7.642  0.00  0.00    +0.000 C 
ATOM     10  C   UNL     1     -27.020   9.831  12.562  0.00  0.00    +0.000 C 
ATOM     11  C   UNL     1     -27.647  14.730   8.310  0.00  0.00    +0.000 A 
ATOM     12  C   UNL     1     -27.668  15.243   9.604  0.00  0.00    +0.000 A 
ENDROOT
TORSDOF 0
ENDMDL
MODEL 7
REMARK VINA RESULT:      -5.1      0.914      3.900
REMARK  Name = ./IMPHY000004_3D.pdb
REMARK  2 active torsions:
REMARK  status: ('A' for Active; 'I' for Inactive)
REMARK    1  A    between atoms: C_3  and  C_9
REMARK    2  A    between atoms: C_4  and  C_10
REMARK                            x       y       z     vdW  Elec       q    Type
REMARK                         _______ _______ _______ _____ _____    ______ ____
ROOT
ATOM      1  C   UNL     1     -27.412  13.438  10.793  0.00  0.00    +0.000 A 
ATOM      2  C   UNL     1     -27.326  12.058  11.094  0.00  0.00    +0.000 A 
ATOM      3  C   UNL     1     -27.482  13.845   9.452  0.00  0.00    +0.000 A 
ATOM      4  C   UNL     1     -27.383  11.548   8.717  0.00  0.00    +0.000 A 
ATOM      5  C   UNL     1     -27.313  11.125  10.044  0.00  0.00    +0.000 A 
ATOM      6  C   UNL     1     -27.468  12.906   8.421  0.00  0.00    +0.000 A 
ATOM      7  C   UNL     1     -27.425  14.371  11.844  0.00  0.00    +0.000 A 
ATOM      8  C   UNL     1     -27.256  11.650  12.436  0.00  0.00    +0.000 A 
ATOM      9  C   UNL     1     -27.574  15.289   9.064  0.00  0.00    +0.000 C 
ATOM     10  C   UNL     1     -27.368  10.544   7.613  0.00  0.00    +0.000 C 
ATOM     11  C   UNL     1     -27.355  13.948  13.171  0.00  0.00    +0.000 A 
ATOM     12  C   UNL     1     -27.271  12.590  13.467  0.00  0.00    +0.000 A 
ENDROOT
TORSDOF 0
ENDMDL
MODEL 8
REMARK VINA RESULT:      -4.8      2.313      4.230
REMARK  Name = ./IMPHY000004_3D.pdb
REMARK  2 active torsions:
REMARK  status: ('A' for Active; 'I' for Inactive)
REMARK    1  A    between atoms: C_3  and  C_9
REMARK    2  A    between atoms: C_4  and  C_10
REMARK                            x       y       z     vdW  Elec       q    Type
REMARK                         _______ _______ _______ _____ _____    ______ ____
ROOT
ATOM      1  C   UNL     1     -29.051  15.139  10.323  0.00  0.00    +0.000 A 
ATOM      2  C   UNL     1     -27.930  14.274  10.341  0.00  0.00    +0.000 A 
ATOM      3  C   UNL     1     -29.718  15.423  11.524  0.00  0.00    +0.000 A 
ATOM      4  C   UNL     1     -28.184  14.015  12.746  0.00  0.00    +0.000 A 
ATOM      5  C   UNL     1     -27.509  13.721  11.561  0.00  0.00    +0.000 A 
ATOM      6  C   UNL     1     -29.287  14.865  12.727  0.00  0.00    +0.000 A 
ATOM      7  C   UNL     1     -29.472  15.692   9.101  0.00  0.00    +0.000 A 
ATOM      8  C   UNL     1     -27.262  13.990   9.138  0.00  0.00    +0.000 A 
ATOM      9  C   UNL     1     -30.911  16.328  11.575  0.00  0.00    +0.000 C 
ATOM     10  C   UNL     1     -27.724  13.418  14.033  0.00  0.00    +0.000 C 
ATOM     11  C   UNL     1     -28.797  15.398   7.917  0.00  0.00    +0.000 A 
ATOM     12  C   UNL     1     -27.694  14.549   7.935  0.00  0.00    +0.000 A 
ENDROOT
TORSDOF 0
ENDMDL
MODEL 9
REMARK VINA RESULT:      -4.6      1.330      3.479
REMARK  Name = ./IMPHY000004_3D.pdb
REMARK  2 active torsions:
REMARK  status: ('A' for Active; 'I' for Inactive)
REMARK    1  A    between atoms: C_3  and  C_9
REMARK    2  A    between atoms: C_4  and  C_10
REMARK                            x       y       z     vdW  Elec       q    Type
REMARK                         _______ _______ _______ _____ _____    ______ ____
ROOT
ATOM      1  C   UNL     1     -27.079  10.961   8.827  0.00  0.00    +0.000 A 
ATOM      2  C   UNL     1     -26.792   9.932   9.756  0.00  0.00    +0.000 A 
ATOM      3  C   UNL     1     -27.421  12.237   9.301  0.00  0.00    +0.000 A 
ATOM      4  C   UNL     1     -27.195  11.485  11.584  0.00  0.00    +0.000 A 
ATOM      5  C   UNL     1     -26.854  10.211  11.131  0.00  0.00    +0.000 A 
ATOM      6  C   UNL     1     -27.478  12.497  10.670  0.00  0.00    +0.000 A 
ATOM      7  C   UNL     1     -27.017  10.682   7.452  0.00  0.00    +0.000 A 
ATOM      8  C   UNL     1     -26.450   8.654   9.283  0.00  0.00    +0.000 A 
ATOM      9  C   UNL     1     -27.736  13.370   8.373  0.00  0.00    +0.000 C 
ATOM     10  C   UNL     1     -27.257  11.764  13.048  0.00  0.00    +0.000 C 
ATOM     11  C   UNL     1     -26.676   9.407   6.999  0.00  0.00    +0.000 A 
ATOM     12  C   UNL     1     -26.393   8.395   7.913  0.00  0.00    +0.000 A 
ENDROOT
TORSDOF 0
ENDMDL
